MODEL 1
REMARK VINA RESULT:    -7.272      0.000      0.000
REMARK INTER + INTRA:         -13.762
REMARK INTER:                 -11.985
REMARK INTRA:                  -1.777
REMARK UNBOUND:                -1.601
REMARK SMILES O=C(O)c1cc(O)c(O)c(O[C@H]2O[C@H](COC(=O)c3cc(O)c(O)c(O)c3)[C@H](O)[C@@H](O)[C@H]2O)c1
REMARK SMILES IDX 14 1 28 2 30 3 32 4 12 5 13 6 15 7 16 8 17 9 18 10 19 11
REMARK SMILES IDX 20 12 27 13 21 14 25 15 23 16 22 17 26 19 24 21 29 23 31 25
REMARK SMILES IDX 11 27 10 28 8 29 34 30 6 31 4 32 5 33 9 34 7 36 2 38 1 39
REMARK SMILES IDX 3 40 33 42
REMARK H PARENT 22 18 26 20 24 22 29 24 31 26 9 35 7 37 3 41 33 43
REMARK INDEX MAP 9 1 10 2 11 3 12 4 13 5 26 6 8 7 24 8 7 9 25 10 1 11 2 12
REMARK INDEX MAP 6 13 3 14 5 15 4 16 21 17 46 18 23 19 48 20 22 21 47 22 33 23
REMARK INDEX MAP 53 24 32 25 52 26 27 27 14 28 15 29 19 30 16 31 18 32 17 33
REMARK INDEX MAP 28 34 49 35 29 36 50 37 20 38 31 39 30 40 51 41 34 42 54 43
REMARK Flexibility Score: inf
ROOT
ATOM      1  C   UNL     1     -10.645  10.411  66.362  1.00  0.00     0.191 C 
ATOM      2  C   UNL     1     -10.610  10.386  64.808  1.00  0.00     0.178 C 
ATOM      3  C   UNL     1     -10.257  11.785  64.234  1.00  0.00     0.180 C 
ATOM      4  C   UNL     1     -11.233  12.834  64.818  1.00  0.00     0.214 C 
ATOM      5  C   UNL     1     -11.164  12.781  66.366  1.00  0.00     0.339 C 
ATOM      6  O   UNL     1     -11.506  11.465  66.845  1.00  0.00    -0.330 OA
ENDROOT
BRANCH   1   7
ATOM      7  C   UNL     1      -9.238  10.411  67.025  1.00  0.00     0.266 C 
BRANCH   7   8
ATOM      8  O   UNL     1      -9.418  10.507  68.455  1.00  0.00    -0.458 OA
BRANCH   8   9
ATOM      9  C   UNL     1      -9.765   9.368  69.077  1.00  0.00     0.340 C 
ATOM     10  O   UNL     1      -9.180   8.342  68.774  1.00  0.00    -0.245 OA
BRANCH   9  11
ATOM     11  C   UNL     1     -10.854   9.270  70.122  1.00  0.00     0.066 A 
ATOM     12  C   UNL     1     -11.166   7.974  70.773  1.00  0.00     0.064 A 
ATOM     13  C   UNL     1     -11.557  10.385  70.463  1.00  0.00     0.064 A 
ATOM     14  C   UNL     1     -12.127   7.898  71.720  1.00  0.00     0.163 A 
ATOM     15  C   UNL     1     -12.619  10.309  71.499  1.00  0.00     0.163 A 
ATOM     16  C   UNL     1     -12.888   9.115  72.106  1.00  0.00     0.201 A 
BRANCH  14  17
ATOM     17  O   UNL     1     -12.398   6.672  72.327  1.00  0.00    -0.503 OA
ATOM     18  H   UNL     1     -12.292   6.572  73.252  1.00  0.00     0.292 HD
ENDBRANCH  14  17
BRANCH  15  19
ATOM     19  O   UNL     1     -13.350  11.441  71.868  1.00  0.00    -0.503 OA
ATOM     20  H   UNL     1     -13.769  11.963  71.213  1.00  0.00     0.292 HD
ENDBRANCH  15  19
BRANCH  16  21
ATOM     21  O   UNL     1     -13.877   9.017  73.090  1.00  0.00    -0.501 OA
ATOM     22  H   UNL     1     -13.900   9.633  73.795  1.00  0.00     0.292 HD
ENDBRANCH  16  21
ENDBRANCH   9  11
ENDBRANCH   8   9
ENDBRANCH   7   8
ENDBRANCH   1   7
BRANCH   2  23
ATOM     23  O   UNL     1      -9.659   9.401  64.362  1.00  0.00    -0.386 OA
ATOM     24  H   UNL     1     -10.053   8.866  63.657  1.00  0.00     0.210 HD
ENDBRANCH   2  23
BRANCH   3  25
ATOM     25  O   UNL     1     -10.311  11.786  62.795  1.00  0.00    -0.386 OA
ATOM     26  H   UNL     1     -10.373  12.700  62.474  1.00  0.00     0.210 HD
ENDBRANCH   3  25
BRANCH   5  27
ATOM     27  O   UNL     1     -12.157  13.684  66.874  1.00  0.00    -0.457 OA
BRANCH  27  28
ATOM     28  C   UNL     1     -11.845  14.585  67.902  1.00  0.00     0.170 A 
ATOM     29  C   UNL     1     -11.113  15.831  67.565  1.00  0.00     0.201 A 
ATOM     30  C   UNL     1     -12.196  14.347  69.210  1.00  0.00     0.064 A 
ATOM     31  C   UNL     1     -10.802  16.733  68.547  1.00  0.00     0.163 A 
ATOM     32  C   UNL     1     -11.853  15.322  70.275  1.00  0.00     0.066 A 
ATOM     33  C   UNL     1     -11.191  16.463  69.955  1.00  0.00     0.064 A 
BRANCH  29  34
ATOM     34  O   UNL     1     -10.747  16.078  66.237  1.00  0.00    -0.501 OA
ATOM     35  H   UNL     1     -10.428  16.923  65.987  1.00  0.00     0.292 HD
ENDBRANCH  29  34
BRANCH  31  36
ATOM     36  O   UNL     1     -10.115  17.902  68.204  1.00  0.00    -0.503 OA
ATOM     37  H   UNL     1      -9.626  18.366  68.854  1.00  0.00     0.292 HD
ENDBRANCH  31  36
BRANCH  32  38
ATOM     38  C   UNL     1     -12.251  15.020  71.704  1.00  0.00     0.337 C 
ATOM     39  O   UNL     1     -13.095  14.169  71.939  1.00  0.00    -0.245 OA
BRANCH  38  40
ATOM     40  O   UNL     1     -11.669  15.696  72.694  1.00  0.00    -0.477 OA
ATOM     41  H   UNL     1     -11.885  15.503  73.585  1.00  0.00     0.295 HD
ENDBRANCH  38  40
ENDBRANCH  32  38
ENDBRANCH  27  28
ENDBRANCH   5  27
BRANCH   4  42
ATOM     42  O   UNL     1     -12.560  12.526  64.347  1.00  0.00    -0.383 OA
ATOM     43  H   UNL     1     -12.525  11.752  63.764  1.00  0.00     0.210 HD
ENDBRANCH   4  42
TORSDOF 16

ENDMDL
MODEL 2
REMARK VINA RESULT:    -7.170      1.914      5.404
REMARK INTER + INTRA:         -13.590
REMARK INTER:                 -11.664
REMARK INTRA:                  -1.926
REMARK UNBOUND:                -1.601
REMARK SMILES O=C(O)c1cc(O)c(O)c(O[C@H]2O[C@H](COC(=O)c3cc(O)c(O)c(O)c3)[C@H](O)[C@@H](O)[C@H]2O)c1
REMARK SMILES IDX 14 1 28 2 30 3 32 4 12 5 13 6 15 7 16 8 17 9 18 10 19 11
REMARK SMILES IDX 20 12 27 13 21 14 25 15 23 16 22 17 26 19 24 21 29 23 31 25
REMARK SMILES IDX 11 27 10 28 8 29 34 30 6 31 4 32 5 33 9 34 7 36 2 38 1 39
REMARK SMILES IDX 3 40 33 42
REMARK H PARENT 22 18 26 20 24 22 29 24 31 26 9 35 7 37 3 41 33 43
REMARK INDEX MAP 9 1 10 2 11 3 12 4 13 5 26 6 8 7 24 8 7 9 25 10 1 11 2 12
REMARK INDEX MAP 6 13 3 14 5 15 4 16 21 17 46 18 23 19 48 20 22 21 47 22 33 23
REMARK INDEX MAP 53 24 32 25 52 26 27 27 14 28 15 29 19 30 16 31 18 32 17 33
REMARK INDEX MAP 28 34 49 35 29 36 50 37 20 38 31 39 30 40 51 41 34 42 54 43
REMARK Flexibility Score: inf
ROOT
ATOM      1  C   UNL     1     -10.625  13.542  67.096  1.00  0.00     0.191 C 
ATOM      2  C   UNL     1     -10.649  14.749  66.117  1.00  0.00     0.178 C 
ATOM      3  C   UNL     1     -11.665  14.517  64.967  1.00  0.00     0.180 C 
ATOM      4  C   UNL     1     -11.354  13.165  64.280  1.00  0.00     0.214 C 
ATOM      5  C   UNL     1     -11.380  12.040  65.347  1.00  0.00     0.339 C 
ATOM      6  O   UNL     1     -10.416  12.302  66.386  1.00  0.00    -0.330 OA
ENDROOT
BRANCH   1   7
ATOM      7  C   UNL     1     -11.834  13.497  68.072  1.00  0.00     0.266 C 
BRANCH   7   8
ATOM      8  O   UNL     1     -11.920  12.162  68.617  1.00  0.00    -0.458 OA
BRANCH   8   9
ATOM      9  C   UNL     1     -12.032  12.082  69.953  1.00  0.00     0.340 C 
ATOM     10  O   UNL     1     -12.132  13.117  70.588  1.00  0.00    -0.245 OA
BRANCH   9  11
ATOM     11  C   UNL     1     -12.021  10.783  70.729  1.00  0.00     0.066 A 
ATOM     12  C   UNL     1     -10.883   9.840  70.611  1.00  0.00     0.064 A 
ATOM     13  C   UNL     1     -13.072  10.479  71.539  1.00  0.00     0.064 A 
ATOM     14  C   UNL     1     -10.871   8.691  71.323  1.00  0.00     0.163 A 
ATOM     15  C   UNL     1     -13.069   9.215  72.320  1.00  0.00     0.163 A 
ATOM     16  C   UNL     1     -12.009   8.360  72.219  1.00  0.00     0.201 A 
BRANCH  14  17
ATOM     17  O   UNL     1      -9.786   7.822  71.205  1.00  0.00    -0.503 OA
ATOM     18  H   UNL     1      -9.419   7.423  71.970  1.00  0.00     0.292 HD
ENDBRANCH  14  17
BRANCH  15  19
ATOM     19  O   UNL     1     -14.134   8.884  73.162  1.00  0.00    -0.503 OA
ATOM     20  H   UNL     1     -13.981   8.729  74.073  1.00  0.00     0.292 HD
ENDBRANCH  15  19
BRANCH  16  21
ATOM     21  O   UNL     1     -11.977   7.167  72.950  1.00  0.00    -0.501 OA
ATOM     22  H   UNL     1     -12.087   6.346  72.512  1.00  0.00     0.292 HD
ENDBRANCH  16  21
ENDBRANCH   9  11
ENDBRANCH   8   9
ENDBRANCH   7   8
ENDBRANCH   1   7
BRANCH   2  23
ATOM     23  O   UNL     1     -10.970  15.952  66.841  1.00  0.00    -0.386 OA
ATOM     24  H   UNL     1     -11.908  15.941  67.087  1.00  0.00     0.210 HD
ENDBRANCH   2  23
BRANCH   3  25
ATOM     25  O   UNL     1     -11.625  15.593  64.010  1.00  0.00    -0.386 OA
ATOM     26  H   UNL     1     -10.845  15.492  63.442  1.00  0.00     0.210 HD
ENDBRANCH   3  25
BRANCH   5  27
ATOM     27  O   UNL     1     -10.980  10.822  64.700  1.00  0.00    -0.457 OA
BRANCH  27  28
ATOM     28  C   UNL     1      -9.927  10.052  65.214  1.00  0.00     0.170 A 
ATOM     29  C   UNL     1      -8.596  10.134  64.563  1.00  0.00     0.201 A 
ATOM     30  C   UNL     1     -10.092   9.225  66.299  1.00  0.00     0.064 A 
ATOM     31  C   UNL     1      -7.547   9.400  65.048  1.00  0.00     0.163 A 
ATOM     32  C   UNL     1      -8.957   8.423  66.820  1.00  0.00     0.066 A 
ATOM     33  C   UNL     1      -7.741   8.512  66.223  1.00  0.00     0.064 A 
BRANCH  29  34
ATOM     34  O   UNL     1      -8.422  10.970  63.454  1.00  0.00    -0.501 OA
ATOM     35  H   UNL     1      -7.693  11.558  63.420  1.00  0.00     0.292 HD
ENDBRANCH  29  34
BRANCH  31  36
ATOM     36  O   UNL     1      -6.301   9.497  64.419  1.00  0.00    -0.503 OA
ATOM     37  H   UNL     1      -5.678   8.803  64.505  1.00  0.00     0.292 HD
ENDBRANCH  31  36
BRANCH  32  38
ATOM     38  C   UNL     1      -9.182   7.519  68.012  1.00  0.00     0.337 C 
ATOM     39  O   UNL     1     -10.280   7.020  68.207  1.00  0.00    -0.245 OA
BRANCH  38  40
ATOM     40  O   UNL     1      -8.166   7.279  68.842  1.00  0.00    -0.477 OA
ATOM     41  H   UNL     1      -7.801   7.976  69.352  1.00  0.00     0.295 HD
ENDBRANCH  38  40
ENDBRANCH  32  38
ENDBRANCH  27  28
ENDBRANCH   5  27
BRANCH   4  42
ATOM     42  O   UNL     1     -10.056  13.262  63.661  1.00  0.00    -0.383 OA
ATOM     43  H   UNL     1      -9.689  14.146  63.816  1.00  0.00     0.210 HD
ENDBRANCH   4  42
TORSDOF 16

ENDMDL
MODEL 3
REMARK VINA RESULT:    -7.132      2.669      4.213
REMARK INTER + INTRA:         -13.528
REMARK INTER:                 -12.262
REMARK INTRA:                  -1.265
REMARK UNBOUND:                -1.601
REMARK SMILES O=C(O)c1cc(O)c(O)c(O[C@H]2O[C@H](COC(=O)c3cc(O)c(O)c(O)c3)[C@H](O)[C@@H](O)[C@H]2O)c1
REMARK SMILES IDX 14 1 28 2 30 3 32 4 12 5 13 6 15 7 16 8 17 9 18 10 19 11
REMARK SMILES IDX 20 12 27 13 21 14 25 15 23 16 22 17 26 19 24 21 29 23 31 25
REMARK SMILES IDX 11 27 10 28 8 29 34 30 6 31 4 32 5 33 9 34 7 36 2 38 1 39
REMARK SMILES IDX 3 40 33 42
REMARK H PARENT 22 18 26 20 24 22 29 24 31 26 9 35 7 37 3 41 33 43
REMARK INDEX MAP 9 1 10 2 11 3 12 4 13 5 26 6 8 7 24 8 7 9 25 10 1 11 2 12
REMARK INDEX MAP 6 13 3 14 5 15 4 16 21 17 46 18 23 19 48 20 22 21 47 22 33 23
REMARK INDEX MAP 53 24 32 25 52 26 27 27 14 28 15 29 19 30 16 31 18 32 17 33
REMARK INDEX MAP 28 34 49 35 29 36 50 37 20 38 31 39 30 40 51 41 34 42 54 43
REMARK Flexibility Score: inf
ROOT
ATOM      1  C   UNL     1     -11.844  14.185  67.643  1.00  0.00     0.191 C 
ATOM      2  C   UNL     1     -11.638  13.602  66.217  1.00  0.00     0.178 C 
ATOM      3  C   UNL     1     -10.244  13.984  65.652  1.00  0.00     0.180 C 
ATOM      4  C   UNL     1     -10.069  15.521  65.728  1.00  0.00     0.214 C 
ATOM      5  C   UNL     1     -10.274  15.980  67.194  1.00  0.00     0.339 C 
ATOM      6  O   UNL     1     -11.584  15.605  67.666  1.00  0.00    -0.330 OA
ENDROOT
BRANCH   1   7
ATOM      7  C   UNL     1     -11.095  13.403  68.759  1.00  0.00     0.266 C 
BRANCH   7   8
ATOM      8  O   UNL     1     -11.823  12.183  69.016  1.00  0.00    -0.458 OA
BRANCH   8   9
ATOM      9  C   UNL     1     -11.079  11.068  69.115  1.00  0.00     0.340 C 
ATOM     10  O   UNL     1     -10.126  10.941  68.366  1.00  0.00    -0.245 OA
BRANCH   9  11
ATOM     11  C   UNL     1     -11.362   9.944  70.088  1.00  0.00     0.066 A 
ATOM     12  C   UNL     1     -12.418  10.083  71.120  1.00  0.00     0.064 A 
ATOM     13  C   UNL     1     -10.633   8.796  70.014  1.00  0.00     0.064 A 
ATOM     14  C   UNL     1     -12.678   9.067  71.972  1.00  0.00     0.163 A 
ATOM     15  C   UNL     1     -10.909   7.677  70.951  1.00  0.00     0.163 A 
ATOM     16  C   UNL     1     -11.895   7.807  71.888  1.00  0.00     0.201 A 
BRANCH  14  17
ATOM     17  O   UNL     1     -13.682   9.214  72.929  1.00  0.00    -0.503 OA
ATOM     18  H   UNL     1     -13.759  10.015  73.409  1.00  0.00     0.292 HD
ENDBRANCH  14  17
BRANCH  15  19
ATOM     19  O   UNL     1     -10.177   6.488  70.890  1.00  0.00    -0.503 OA
ATOM     20  H   UNL     1     -10.569   5.715  70.536  1.00  0.00     0.292 HD
ENDBRANCH  15  19
BRANCH  16  21
ATOM     21  O   UNL     1     -12.181   6.765  72.777  1.00  0.00    -0.501 OA
ATOM     22  H   UNL     1     -11.790   5.923  72.654  1.00  0.00     0.292 HD
ENDBRANCH  16  21
ENDBRANCH   9  11
ENDBRANCH   8   9
ENDBRANCH   7   8
ENDBRANCH   1   7
BRANCH   2  23
ATOM     23  O   UNL     1     -11.795  12.171  66.253  1.00  0.00    -0.386 OA
ATOM     24  H   UNL     1     -11.602  11.847  67.145  1.00  0.00     0.210 HD
ENDBRANCH   2  23
BRANCH   3  25
ATOM     25  O   UNL     1     -10.085  13.521  64.298  1.00  0.00    -0.386 OA
ATOM     26  H   UNL     1      -9.288  12.973  64.234  1.00  0.00     0.210 HD
ENDBRANCH   3  25
BRANCH   5  27
ATOM     27  O   UNL     1     -10.215  17.414  67.210  1.00  0.00    -0.457 OA
BRANCH  27  28
ATOM     28  C   UNL     1      -9.045  18.077  67.609  1.00  0.00     0.170 A 
ATOM     29  C   UNL     1      -8.791  19.448  67.100  1.00  0.00     0.201 A 
ATOM     30  C   UNL     1      -8.131  17.496  68.455  1.00  0.00     0.064 A 
ATOM     31  C   UNL     1      -7.661  20.123  67.479  1.00  0.00     0.163 A 
ATOM     32  C   UNL     1      -6.904  18.225  68.860  1.00  0.00     0.066 A 
ATOM     33  C   UNL     1      -6.684  19.482  68.396  1.00  0.00     0.064 A 
BRANCH  29  34
ATOM     34  O   UNL     1      -9.714  20.044  66.233  1.00  0.00    -0.501 OA
ATOM     35  H   UNL     1     -10.632  19.891  66.349  1.00  0.00     0.292 HD
ENDBRANCH  29  34
BRANCH  31  36
ATOM     36  O   UNL     1      -7.446  21.415  66.988  1.00  0.00    -0.503 OA
ATOM     37  H   UNL     1      -6.640  21.624  66.558  1.00  0.00     0.292 HD
ENDBRANCH  31  36
BRANCH  32  38
ATOM     38  C   UNL     1      -5.919  17.548  69.788  1.00  0.00     0.337 C 
ATOM     39  O   UNL     1      -5.785  16.334  69.762  1.00  0.00    -0.245 OA
BRANCH  38  40
ATOM     40  O   UNL     1      -5.204  18.296  70.629  1.00  0.00    -0.477 OA
ATOM     41  H   UNL     1      -5.443  18.344  71.534  1.00  0.00     0.295 HD
ENDBRANCH  38  40
ENDBRANCH  32  38
ENDBRANCH  27  28
ENDBRANCH   5  27
BRANCH   4  42
ATOM     42  O   UNL     1     -11.041  16.128  64.854  1.00  0.00    -0.383 OA
ATOM     43  H   UNL     1     -11.086  15.629  64.023  1.00  0.00     0.210 HD
ENDBRANCH   4  42
TORSDOF 16

ENDMDL
MODEL 4
REMARK VINA RESULT:    -7.080      1.730      5.779
REMARK INTER + INTRA:         -13.440
REMARK INTER:                 -11.711
REMARK INTRA:                  -1.729
REMARK UNBOUND:                -1.601
REMARK SMILES O=C(O)c1cc(O)c(O)c(O[C@H]2O[C@H](COC(=O)c3cc(O)c(O)c(O)c3)[C@H](O)[C@@H](O)[C@H]2O)c1
REMARK SMILES IDX 14 1 28 2 30 3 32 4 12 5 13 6 15 7 16 8 17 9 18 10 19 11
REMARK SMILES IDX 20 12 27 13 21 14 25 15 23 16 22 17 26 19 24 21 29 23 31 25
REMARK SMILES IDX 11 27 10 28 8 29 34 30 6 31 4 32 5 33 9 34 7 36 2 38 1 39
REMARK SMILES IDX 3 40 33 42
REMARK H PARENT 22 18 26 20 24 22 29 24 31 26 9 35 7 37 3 41 33 43
REMARK INDEX MAP 9 1 10 2 11 3 12 4 13 5 26 6 8 7 24 8 7 9 25 10 1 11 2 12
REMARK INDEX MAP 6 13 3 14 5 15 4 16 21 17 46 18 23 19 48 20 22 21 47 22 33 23
REMARK INDEX MAP 53 24 32 25 52 26 27 27 14 28 15 29 19 30 16 31 18 32 17 33
REMARK INDEX MAP 28 34 49 35 29 36 50 37 20 38 31 39 30 40 51 41 34 42 54 43
REMARK Flexibility Score: inf
ROOT
ATOM      1  C   UNL     1     -10.553  13.842  65.592  1.00  0.00     0.191 C 
ATOM      2  C   UNL     1     -11.114  13.403  64.210  1.00  0.00     0.178 C 
ATOM      3  C   UNL     1     -11.848  12.039  64.311  1.00  0.00     0.180 C 
ATOM      4  C   UNL     1     -10.900  11.000  64.958  1.00  0.00     0.214 C 
ATOM      5  C   UNL     1     -10.426  11.535  66.333  1.00  0.00     0.339 C 
ATOM      6  O   UNL     1      -9.748  12.798  66.180  1.00  0.00    -0.330 OA
ENDROOT
BRANCH   1   7
ATOM      7  C   UNL     1     -11.631  14.409  66.559  1.00  0.00     0.266 C 
BRANCH   7   8
ATOM      8  O   UNL     1     -11.073  15.565  67.221  1.00  0.00    -0.458 OA
BRANCH   8   9
ATOM      9  C   UNL     1     -10.683  15.379  68.493  1.00  0.00     0.340 C 
ATOM     10  O   UNL     1      -9.532  15.646  68.789  1.00  0.00    -0.245 OA
BRANCH   9  11
ATOM     11  C   UNL     1     -11.580  14.836  69.584  1.00  0.00     0.066 A 
ATOM     12  C   UNL     1     -11.751  13.374  69.767  1.00  0.00     0.064 A 
ATOM     13  C   UNL     1     -12.238  15.703  70.402  1.00  0.00     0.064 A 
ATOM     14  C   UNL     1     -12.537  12.897  70.757  1.00  0.00     0.163 A 
ATOM     15  C   UNL     1     -13.108  15.186  71.489  1.00  0.00     0.163 A 
ATOM     16  C   UNL     1     -13.247  13.838  71.662  1.00  0.00     0.201 A 
BRANCH  14  17
ATOM     17  O   UNL     1     -12.677  11.518  70.917  1.00  0.00    -0.503 OA
ATOM     18  H   UNL     1     -13.529  11.128  70.900  1.00  0.00     0.292 HD
ENDBRANCH  14  17
BRANCH  15  19
ATOM     19  O   UNL     1     -13.789  16.056  72.345  1.00  0.00    -0.503 OA
ATOM     20  H   UNL     1     -14.679  16.288  72.166  1.00  0.00     0.292 HD
ENDBRANCH  15  19
BRANCH  16  21
ATOM     21  O   UNL     1     -14.055  13.324  72.682  1.00  0.00    -0.501 OA
ATOM     22  H   UNL     1     -14.982  13.265  72.562  1.00  0.00     0.292 HD
ENDBRANCH  16  21
ENDBRANCH   9  11
ENDBRANCH   8   9
ENDBRANCH   7   8
ENDBRANCH   1   7
BRANCH   2  23
ATOM     23  O   UNL     1     -12.000  14.418  63.704  1.00  0.00    -0.386 OA
ATOM     24  H   UNL     1     -12.801  14.450  64.249  1.00  0.00     0.210 HD
ENDBRANCH   2  23
BRANCH   3  25
ATOM     25  O   UNL     1     -12.290  11.587  63.018  1.00  0.00    -0.386 OA
ATOM     26  H   UNL     1     -12.471  10.635  63.052  1.00  0.00     0.210 HD
ENDBRANCH   3  25
BRANCH   5  27
ATOM     27  O   UNL     1      -9.467  10.603  66.853  1.00  0.00    -0.457 OA
BRANCH  27  28
ATOM     28  C   UNL     1      -9.869   9.562  67.702  1.00  0.00     0.170 A 
ATOM     29  C   UNL     1     -10.122   8.220  67.120  1.00  0.00     0.201 A 
ATOM     30  C   UNL     1     -10.036   9.748  69.054  1.00  0.00     0.064 A 
ATOM     31  C   UNL     1     -10.508   7.182  67.926  1.00  0.00     0.163 A 
ATOM     32  C   UNL     1     -10.461   8.625  69.926  1.00  0.00     0.066 A 
ATOM     33  C   UNL     1     -10.681   7.399  69.386  1.00  0.00     0.064 A 
BRANCH  29  34
ATOM     34  O   UNL     1      -9.960   8.024  65.744  1.00  0.00    -0.501 OA
ATOM     35  H   UNL     1      -9.230   8.406  65.299  1.00  0.00     0.292 HD
ENDBRANCH  29  34
BRANCH  31  36
ATOM     36  O   UNL     1     -10.737   5.927  67.355  1.00  0.00    -0.503 OA
ATOM     37  H   UNL     1     -10.201   5.631  66.645  1.00  0.00     0.292 HD
ENDBRANCH  31  36
BRANCH  32  38
ATOM     38  C   UNL     1     -10.640   8.873  71.408  1.00  0.00     0.337 C 
ATOM     39  O   UNL     1     -11.760   8.996  71.879  1.00  0.00    -0.245 OA
BRANCH  38  40
ATOM     40  O   UNL     1      -9.560   8.955  72.185  1.00  0.00    -0.477 OA
ATOM     41  H   UNL     1      -9.187   9.792  72.384  1.00  0.00     0.295 HD
ENDBRANCH  38  40
ENDBRANCH  32  38
ENDBRANCH  27  28
ENDBRANCH   5  27
BRANCH   4  42
ATOM     42  O   UNL     1      -9.784  10.794  64.069  1.00  0.00    -0.383 OA
ATOM     43  H   UNL     1     -10.090  10.350  63.263  1.00  0.00     0.210 HD
ENDBRANCH   4  42
TORSDOF 16

ENDMDL
MODEL 5
REMARK VINA RESULT:    -7.033      2.646      8.032
REMARK INTER + INTRA:         -13.363
REMARK INTER:                 -12.054
REMARK INTRA:                  -1.308
REMARK UNBOUND:                -1.601
REMARK SMILES O=C(O)c1cc(O)c(O)c(O[C@H]2O[C@H](COC(=O)c3cc(O)c(O)c(O)c3)[C@H](O)[C@@H](O)[C@H]2O)c1
REMARK SMILES IDX 14 1 28 2 30 3 32 4 12 5 13 6 15 7 16 8 17 9 18 10 19 11
REMARK SMILES IDX 20 12 27 13 21 14 25 15 23 16 22 17 26 19 24 21 29 23 31 25
REMARK SMILES IDX 11 27 10 28 8 29 34 30 6 31 4 32 5 33 9 34 7 36 2 38 1 39
REMARK SMILES IDX 3 40 33 42
REMARK H PARENT 22 18 26 20 24 22 29 24 31 26 9 35 7 37 3 41 33 43
REMARK INDEX MAP 9 1 10 2 11 3 12 4 13 5 26 6 8 7 24 8 7 9 25 10 1 11 2 12
REMARK INDEX MAP 6 13 3 14 5 15 4 16 21 17 46 18 23 19 48 20 22 21 47 22 33 23
REMARK INDEX MAP 53 24 32 25 52 26 27 27 14 28 15 29 19 30 16 31 18 32 17 33
REMARK INDEX MAP 28 34 49 35 29 36 50 37 20 38 31 39 30 40 51 41 34 42 54 43
REMARK Flexibility Score: inf
ROOT
ATOM      1  C   UNL     1     -10.309  14.794  66.851  1.00  0.00     0.191 C 
ATOM      2  C   UNL     1     -10.754  15.090  65.391  1.00  0.00     0.178 C 
ATOM      3  C   UNL     1     -12.041  14.302  65.027  1.00  0.00     0.180 C 
ATOM      4  C   UNL     1     -11.814  12.798  65.316  1.00  0.00     0.214 C 
ATOM      5  C   UNL     1     -11.400  12.626  66.800  1.00  0.00     0.339 C 
ATOM      6  O   UNL     1     -10.198  13.373  67.081  1.00  0.00    -0.330 OA
ENDROOT
BRANCH   1   7
ATOM      7  C   UNL     1     -11.155  15.529  67.929  1.00  0.00     0.266 C 
BRANCH   7   8
ATOM      8  O   UNL     1     -10.266  16.368  68.698  1.00  0.00    -0.458 OA
BRANCH   8   9
ATOM      9  C   UNL     1     -10.041  17.595  68.198  1.00  0.00     0.340 C 
ATOM     10  O   UNL     1     -10.983  18.209  67.729  1.00  0.00    -0.245 OA
BRANCH   9  11
ATOM     11  C   UNL     1      -8.683  18.259  68.160  1.00  0.00     0.066 A 
ATOM     12  C   UNL     1      -8.526  19.633  67.623  1.00  0.00     0.064 A 
ATOM     13  C   UNL     1      -7.594  17.584  68.622  1.00  0.00     0.064 A 
ATOM     14  C   UNL     1      -7.312  20.228  67.611  1.00  0.00     0.163 A 
ATOM     15  C   UNL     1      -6.256  18.229  68.607  1.00  0.00     0.163 A 
ATOM     16  C   UNL     1      -6.123  19.501  68.126  1.00  0.00     0.201 A 
BRANCH  14  17
ATOM     17  O   UNL     1      -7.188  21.523  67.110  1.00  0.00    -0.503 OA
ATOM     18  H   UNL     1      -7.927  22.099  67.109  1.00  0.00     0.292 HD
ENDBRANCH  14  17
BRANCH  15  19
ATOM     19  O   UNL     1      -5.126  17.557  69.081  1.00  0.00    -0.503 OA
ATOM     20  H   UNL     1      -5.003  16.649  68.885  1.00  0.00     0.292 HD
ENDBRANCH  15  19
BRANCH  16  21
ATOM     21  O   UNL     1      -4.875  20.134  68.108  1.00  0.00    -0.501 OA
ATOM     22  H   UNL     1      -4.269  19.955  67.418  1.00  0.00     0.292 HD
ENDBRANCH  16  21
ENDBRANCH   9  11
ENDBRANCH   8   9
ENDBRANCH   7   8
ENDBRANCH   1   7
BRANCH   2  23
ATOM     23  O   UNL     1     -10.963  16.505  65.227  1.00  0.00    -0.386 OA
ATOM     24  H   UNL     1     -11.224  16.893  66.075  1.00  0.00     0.210 HD
ENDBRANCH   2  23
BRANCH   3  25
ATOM     25  O   UNL     1     -12.404  14.505  63.648  1.00  0.00    -0.386 OA
ATOM     26  H   UNL     1     -11.695  14.986  63.194  1.00  0.00     0.210 HD
ENDBRANCH   3  25
BRANCH   5  27
ATOM     27  O   UNL     1     -11.091  11.240  67.005  1.00  0.00    -0.457 OA
BRANCH  27  28
ATOM     28  C   UNL     1     -11.224  10.658  68.274  1.00  0.00     0.170 A 
ATOM     29  C   UNL     1     -10.469   9.416  68.574  1.00  0.00     0.201 A 
ATOM     30  C   UNL     1     -12.031  11.202  69.244  1.00  0.00     0.064 A 
ATOM     31  C   UNL     1     -10.572   8.829  69.807  1.00  0.00     0.163 A 
ATOM     32  C   UNL     1     -12.149  10.562  70.577  1.00  0.00     0.066 A 
ATOM     33  C   UNL     1     -11.447   9.432  70.846  1.00  0.00     0.064 A 
BRANCH  29  34
ATOM     34  O   UNL     1      -9.649   8.852  67.589  1.00  0.00    -0.501 OA
ATOM     35  H   UNL     1     -10.032   8.434  66.844  1.00  0.00     0.292 HD
ENDBRANCH  29  34
BRANCH  31  36
ATOM     36  O   UNL     1      -9.847   7.662  70.067  1.00  0.00    -0.503 OA
ATOM     37  H   UNL     1      -9.484   7.516  70.919  1.00  0.00     0.292 HD
ENDBRANCH  31  36
BRANCH  32  38
ATOM     38  C   UNL     1     -13.054  11.189  71.616  1.00  0.00     0.337 C 
ATOM     39  O   UNL     1     -13.220  12.399  71.636  1.00  0.00    -0.245 OA
BRANCH  38  40
ATOM     40  O   UNL     1     -13.661  10.402  72.504  1.00  0.00    -0.477 OA
ATOM     41  H   UNL     1     -13.237  10.192  73.313  1.00  0.00     0.295 HD
ENDBRANCH  38  40
ENDBRANCH  32  38
ENDBRANCH  27  28
ENDBRANCH   5  27
BRANCH   4  42
ATOM     42  O   UNL     1     -10.782  12.320  64.431  1.00  0.00    -0.383 OA
ATOM     43  H   UNL     1     -10.922  11.377  64.251  1.00  0.00     0.210 HD
ENDBRANCH   4  42
TORSDOF 16

ENDMDL
MODEL 6
REMARK VINA RESULT:    -7.032      0.500      1.537
REMARK INTER + INTRA:         -13.360
REMARK INTER:                 -11.607
REMARK INTRA:                  -1.753
REMARK UNBOUND:                -1.601
REMARK SMILES O=C(O)c1cc(O)c(O)c(O[C@H]2O[C@H](COC(=O)c3cc(O)c(O)c(O)c3)[C@H](O)[C@@H](O)[C@H]2O)c1
REMARK SMILES IDX 14 1 28 2 30 3 32 4 12 5 13 6 15 7 16 8 17 9 18 10 19 11
REMARK SMILES IDX 20 12 27 13 21 14 25 15 23 16 22 17 26 19 24 21 29 23 31 25
REMARK SMILES IDX 11 27 10 28 8 29 34 30 6 31 4 32 5 33 9 34 7 36 2 38 1 39
REMARK SMILES IDX 3 40 33 42
REMARK H PARENT 22 18 26 20 24 22 29 24 31 26 9 35 7 37 3 41 33 43
REMARK INDEX MAP 9 1 10 2 11 3 12 4 13 5 26 6 8 7 24 8 7 9 25 10 1 11 2 12
REMARK INDEX MAP 6 13 3 14 5 15 4 16 21 17 46 18 23 19 48 20 22 21 47 22 33 23
REMARK INDEX MAP 53 24 32 25 52 26 27 27 14 28 15 29 19 30 16 31 18 32 17 33
REMARK INDEX MAP 28 34 49 35 29 36 50 37 20 38 31 39 30 40 51 41 34 42 54 43
REMARK Flexibility Score: inf
ROOT
ATOM      1  C   UNL     1     -10.293  10.239  66.432  1.00  0.00     0.191 C 
ATOM      2  C   UNL     1     -10.215  10.028  64.894  1.00  0.00     0.178 C 
ATOM      3  C   UNL     1      -9.845  11.349  64.167  1.00  0.00     0.180 C 
ATOM      4  C   UNL     1     -10.837  12.458  64.594  1.00  0.00     0.214 C 
ATOM      5  C   UNL     1     -10.811  12.591  66.138  1.00  0.00     0.339 C 
ATOM      6  O   UNL     1     -11.166  11.341  66.762  1.00  0.00    -0.330 OA
ENDROOT
BRANCH   1   7
ATOM      7  C   UNL     1      -8.905  10.323  67.129  1.00  0.00     0.266 C 
BRANCH   7   8
ATOM      8  O   UNL     1      -9.126  10.427  68.553  1.00  0.00    -0.458 OA
BRANCH   8   9
ATOM      9  C   UNL     1      -9.479   9.290  69.175  1.00  0.00     0.340 C 
ATOM     10  O   UNL     1      -8.887   8.265  68.885  1.00  0.00    -0.245 OA
BRANCH   9  11
ATOM     11  C   UNL     1     -10.585   9.194  70.202  1.00  0.00     0.066 A 
ATOM     12  C   UNL     1     -11.438  10.368  70.509  1.00  0.00     0.064 A 
ATOM     13  C   UNL     1     -10.794   8.016  70.853  1.00  0.00     0.064 A 
ATOM     14  C   UNL     1     -12.438  10.269  71.414  1.00  0.00     0.163 A 
ATOM     15  C   UNL     1     -11.886   7.901  71.853  1.00  0.00     0.163 A 
ATOM     16  C   UNL     1     -12.679   8.982  72.117  1.00  0.00     0.201 A 
BRANCH  14  17
ATOM     17  O   UNL     1     -13.234  11.382  71.682  1.00  0.00    -0.503 OA
ATOM     18  H   UNL     1     -14.148  11.365  71.478  1.00  0.00     0.292 HD
ENDBRANCH  14  17
BRANCH  15  19
ATOM     19  O   UNL     1     -12.123   6.701  72.529  1.00  0.00    -0.503 OA
ATOM     20  H   UNL     1     -11.750   5.903  72.210  1.00  0.00     0.292 HD
ENDBRANCH  15  19
BRANCH  16  21
ATOM     21  O   UNL     1     -13.720   8.899  73.048  1.00  0.00    -0.501 OA
ATOM     22  H   UNL     1     -13.601   8.415  73.842  1.00  0.00     0.292 HD
ENDBRANCH  16  21
ENDBRANCH   9  11
ENDBRANCH   8   9
ENDBRANCH   7   8
ENDBRANCH   1   7
BRANCH   2  23
ATOM     23  O   UNL     1      -9.252   9.000  64.596  1.00  0.00    -0.386 OA
ATOM     24  H   UNL     1      -9.043   8.508  65.404  1.00  0.00     0.210 HD
ENDBRANCH   2  23
BRANCH   3  25
ATOM     25  O   UNL     1      -9.859  11.178  62.737  1.00  0.00    -0.386 OA
ATOM     26  H   UNL     1     -10.589  10.589  62.488  1.00  0.00     0.210 HD
ENDBRANCH   3  25
BRANCH   5  27
ATOM     27  O   UNL     1     -11.817  13.546  66.506  1.00  0.00    -0.457 OA
BRANCH  27  28
ATOM     28  C   UNL     1     -11.553  14.527  67.473  1.00  0.00     0.170 A 
ATOM     29  C   UNL     1     -10.851  15.768  67.060  1.00  0.00     0.201 A 
ATOM     30  C   UNL     1     -11.922  14.372  68.788  1.00  0.00     0.064 A 
ATOM     31  C   UNL     1     -10.586  16.747  67.980  1.00  0.00     0.163 A 
ATOM     32  C   UNL     1     -11.629  15.430  69.786  1.00  0.00     0.066 A 
ATOM     33  C   UNL     1     -10.995  16.566  69.397  1.00  0.00     0.064 A 
BRANCH  29  34
ATOM     34  O   UNL     1     -10.466  15.930  65.724  1.00  0.00    -0.501 OA
ATOM     35  H   UNL     1     -10.891  16.570  65.188  1.00  0.00     0.292 HD
ENDBRANCH  29  34
BRANCH  31  36
ATOM     36  O   UNL     1      -9.928  17.908  67.566  1.00  0.00    -0.503 OA
ATOM     37  H   UNL     1     -10.334  18.744  67.683  1.00  0.00     0.292 HD
ENDBRANCH  31  36
BRANCH  32  38
ATOM     38  C   UNL     1     -12.047  15.218  71.225  1.00  0.00     0.337 C 
ATOM     39  O   UNL     1     -12.451  14.126  71.593  1.00  0.00    -0.245 OA
BRANCH  38  40
ATOM     40  O   UNL     1     -11.967  16.240  72.079  1.00  0.00    -0.477 OA
ATOM     41  H   UNL     1     -11.146  16.668  72.223  1.00  0.00     0.295 HD
ENDBRANCH  38  40
ENDBRANCH  32  38
ENDBRANCH  27  28
ENDBRANCH   5  27
BRANCH   4  42
ATOM     42  O   UNL     1     -12.150  12.092  64.127  1.00  0.00    -0.383 OA
ATOM     43  H   UNL     1     -12.770  12.085  64.874  1.00  0.00     0.210 HD
ENDBRANCH   4  42
TORSDOF 16

ENDMDL
MODEL 7
REMARK VINA RESULT:    -6.648      2.939      7.814
REMARK INTER + INTRA:         -12.719
REMARK INTER:                 -11.162
REMARK INTRA:                  -1.556
REMARK UNBOUND:                -1.601
REMARK SMILES O=C(O)c1cc(O)c(O)c(O[C@H]2O[C@H](COC(=O)c3cc(O)c(O)c(O)c3)[C@H](O)[C@@H](O)[C@H]2O)c1
REMARK SMILES IDX 14 1 28 2 30 3 32 4 12 5 13 6 15 7 16 8 17 9 18 10 19 11
REMARK SMILES IDX 20 12 27 13 21 14 25 15 23 16 22 17 26 19 24 21 29 23 31 25
REMARK SMILES IDX 11 27 10 28 8 29 34 30 6 31 4 32 5 33 9 34 7 36 2 38 1 39
REMARK SMILES IDX 3 40 33 42
REMARK H PARENT 22 18 26 20 24 22 29 24 31 26 9 35 7 37 3 41 33 43
REMARK INDEX MAP 9 1 10 2 11 3 12 4 13 5 26 6 8 7 24 8 7 9 25 10 1 11 2 12
REMARK INDEX MAP 6 13 3 14 5 15 4 16 21 17 46 18 23 19 48 20 22 21 47 22 33 23
REMARK INDEX MAP 53 24 32 25 52 26 27 27 14 28 15 29 19 30 16 31 18 32 17 33
REMARK INDEX MAP 28 34 49 35 29 36 50 37 20 38 31 39 30 40 51 41 34 42 54 43
REMARK Flexibility Score: inf
ROOT
ATOM      1  C   UNL     1     -10.347  15.321  67.002  1.00  0.00     0.191 C 
ATOM      2  C   UNL     1     -10.480  15.942  65.583  1.00  0.00     0.178 C 
ATOM      3  C   UNL     1     -11.858  15.605  64.951  1.00  0.00     0.180 C 
ATOM      4  C   UNL     1     -12.069  14.072  64.983  1.00  0.00     0.214 C 
ATOM      5  C   UNL     1     -11.937  13.574  66.445  1.00  0.00     0.339 C 
ATOM      6  O   UNL     1     -10.640  13.907  66.980  1.00  0.00    -0.330 OA
ENDROOT
BRANCH   1   7
ATOM      7  C   UNL     1     -11.126  16.095  68.104  1.00  0.00     0.266 C 
BRANCH   7   8
ATOM      8  O   UNL     1     -10.161  16.673  69.010  1.00  0.00    -0.458 OA
BRANCH   8   9
ATOM      9  C   UNL     1      -9.658  17.864  68.646  1.00  0.00     0.340 C 
ATOM     10  O   UNL     1     -10.436  18.752  68.345  1.00  0.00    -0.245 OA
BRANCH   9  11
ATOM     11  C   UNL     1      -8.179  18.171  68.566  1.00  0.00     0.066 A 
ATOM     12  C   UNL     1      -7.191  17.087  68.345  1.00  0.00     0.064 A 
ATOM     13  C   UNL     1      -7.754  19.458  68.702  1.00  0.00     0.064 A 
ATOM     14  C   UNL     1      -5.873  17.372  68.254  1.00  0.00     0.163 A 
ATOM     15  C   UNL     1      -6.306  19.778  68.609  1.00  0.00     0.163 A 
ATOM     16  C   UNL     1      -5.404  18.775  68.388  1.00  0.00     0.201 A 
BRANCH  14  17
ATOM     17  O   UNL     1      -4.961  16.339  68.036  1.00  0.00    -0.503 OA
ATOM     18  H   UNL     1      -5.196  15.455  68.241  1.00  0.00     0.292 HD
ENDBRANCH  14  17
BRANCH  15  19
ATOM     19  O   UNL     1      -5.848  21.091  68.741  1.00  0.00    -0.503 OA
ATOM     20  H   UNL     1      -5.942  21.694  68.030  1.00  0.00     0.292 HD
ENDBRANCH  15  19
BRANCH  16  21
ATOM     21  O   UNL     1      -4.036  19.050  68.288  1.00  0.00    -0.501 OA
ATOM     22  H   UNL     1      -3.617  19.046  67.451  1.00  0.00     0.292 HD
ENDBRANCH  16  21
ENDBRANCH   9  11
ENDBRANCH   8   9
ENDBRANCH   7   8
ENDBRANCH   1   7
BRANCH   2  23
ATOM     23  O   UNL     1     -10.293  17.367  65.659  1.00  0.00    -0.386 OA
ATOM     24  H   UNL     1      -9.594  17.635  65.044  1.00  0.00     0.210 HD
ENDBRANCH   2  23
BRANCH   3  25
ATOM     25  O   UNL     1     -11.949  16.102  63.603  1.00  0.00    -0.386 OA
ATOM     26  H   UNL     1     -12.808  16.534  63.474  1.00  0.00     0.210 HD
ENDBRANCH   3  25
BRANCH   5  27
ATOM     27  O   UNL     1     -12.028  12.143  66.424  1.00  0.00    -0.457 OA
BRANCH  27  28
ATOM     28  C   UNL     1     -11.283  11.365  67.323  1.00  0.00     0.170 A 
ATOM     29  C   UNL     1      -9.913  10.941  66.937  1.00  0.00     0.201 A 
ATOM     30  C   UNL     1     -11.782  10.985  68.545  1.00  0.00     0.064 A 
ATOM     31  C   UNL     1      -9.159  10.189  67.797  1.00  0.00     0.163 A 
ATOM     32  C   UNL     1     -10.967  10.163  69.474  1.00  0.00     0.066 A 
ATOM     33  C   UNL     1      -9.712   9.788  69.116  1.00  0.00     0.064 A 
BRANCH  29  34
ATOM     34  O   UNL     1      -9.400  11.320  65.691  1.00  0.00    -0.501 OA
ATOM     35  H   UNL     1      -8.623  11.842  65.643  1.00  0.00     0.292 HD
ENDBRANCH  29  34
BRANCH  31  36
ATOM     36  O   UNL     1      -7.870   9.805  67.412  1.00  0.00    -0.503 OA
ATOM     37  H   UNL     1      -7.462   9.064  67.816  1.00  0.00     0.292 HD
ENDBRANCH  31  36
BRANCH  32  38
ATOM     38  C   UNL     1     -11.556   9.760  70.808  1.00  0.00     0.337 C 
ATOM     39  O   UNL     1     -12.742   9.942  71.037  1.00  0.00    -0.245 OA
BRANCH  38  40
ATOM     40  O   UNL     1     -10.762   9.205  71.725  1.00  0.00    -0.477 OA
ATOM     41  H   UNL     1      -9.846   9.405  71.735  1.00  0.00     0.295 HD
ENDBRANCH  38  40
ENDBRANCH  32  38
ENDBRANCH  27  28
ENDBRANCH   5  27
BRANCH   4  42
ATOM     42  O   UNL     1     -11.076  13.462  64.136  1.00  0.00    -0.383 OA
ATOM     43  H   UNL     1     -10.368  14.100  63.957  1.00  0.00     0.210 HD
ENDBRANCH   4  42
TORSDOF 16

ENDMDL
MODEL 8
REMARK VINA RESULT:    -6.502      0.939      2.462
REMARK INTER + INTRA:         -12.474
REMARK INTER:                 -10.890
REMARK INTRA:                  -1.585
REMARK UNBOUND:                -1.601
REMARK SMILES O=C(O)c1cc(O)c(O)c(O[C@H]2O[C@H](COC(=O)c3cc(O)c(O)c(O)c3)[C@H](O)[C@@H](O)[C@H]2O)c1
REMARK SMILES IDX 14 1 28 2 30 3 32 4 12 5 13 6 15 7 16 8 17 9 18 10 19 11
REMARK SMILES IDX 20 12 27 13 21 14 25 15 23 16 22 17 26 19 24 21 29 23 31 25
REMARK SMILES IDX 11 27 10 28 8 29 34 30 6 31 4 32 5 33 9 34 7 36 2 38 1 39
REMARK SMILES IDX 3 40 33 42
REMARK H PARENT 22 18 26 20 24 22 29 24 31 26 9 35 7 37 3 41 33 43
REMARK INDEX MAP 9 1 10 2 11 3 12 4 13 5 26 6 8 7 24 8 7 9 25 10 1 11 2 12
REMARK INDEX MAP 6 13 3 14 5 15 4 16 21 17 46 18 23 19 48 20 22 21 47 22 33 23
REMARK INDEX MAP 53 24 32 25 52 26 27 27 14 28 15 29 19 30 16 31 18 32 17 33
REMARK INDEX MAP 28 34 49 35 29 36 50 37 20 38 31 39 30 40 51 41 34 42 54 43
REMARK Flexibility Score: inf
ROOT
ATOM      1  C   UNL     1     -10.106  10.145  66.382  1.00  0.00     0.191 C 
ATOM      2  C   UNL     1     -10.111  10.070  64.830  1.00  0.00     0.178 C 
ATOM      3  C   UNL     1      -9.845  11.464  64.201  1.00  0.00     0.180 C 
ATOM      4  C   UNL     1     -10.856  12.484  64.780  1.00  0.00     0.214 C 
ATOM      5  C   UNL     1     -10.743  12.486  66.325  1.00  0.00     0.339 C 
ATOM      6  O   UNL     1     -11.005  11.171  66.856  1.00  0.00    -0.330 OA
ENDROOT
BRANCH   1   7
ATOM      7  C   UNL     1      -8.683  10.237  67.004  1.00  0.00     0.266 C 
BRANCH   7   8
ATOM      8  O   UNL     1      -8.824  10.242  68.442  1.00  0.00    -0.458 OA
BRANCH   8   9
ATOM      9  C   UNL     1      -9.279   9.102  68.989  1.00  0.00     0.340 C 
ATOM     10  O   UNL     1      -8.807   8.047  68.602  1.00  0.00    -0.245 OA
BRANCH   9  11
ATOM     11  C   UNL     1     -10.360   9.040  70.045  1.00  0.00     0.066 A 
ATOM     12  C   UNL     1     -10.712   7.754  70.695  1.00  0.00     0.064 A 
ATOM     13  C   UNL     1     -11.017  10.180  70.397  1.00  0.00     0.064 A 
ATOM     14  C   UNL     1     -11.664   7.711  71.652  1.00  0.00     0.163 A 
ATOM     15  C   UNL     1     -12.069  10.139  71.445  1.00  0.00     0.163 A 
ATOM     16  C   UNL     1     -12.376   8.953  72.051  1.00  0.00     0.201 A 
BRANCH  14  17
ATOM     17  O   UNL     1     -11.974   6.493  72.257  1.00  0.00    -0.503 OA
ATOM     18  H   UNL     1     -11.694   6.320  73.135  1.00  0.00     0.292 HD
ENDBRANCH  14  17
BRANCH  15  19
ATOM     19  O   UNL     1     -12.753  11.296  71.827  1.00  0.00    -0.503 OA
ATOM     20  H   UNL     1     -13.377  11.263  72.524  1.00  0.00     0.292 HD
ENDBRANCH  15  19
BRANCH  16  21
ATOM     21  O   UNL     1     -13.357   8.888  73.046  1.00  0.00    -0.501 OA
ATOM     22  H   UNL     1     -13.230   8.341  73.795  1.00  0.00     0.292 HD
ENDBRANCH  16  21
ENDBRANCH   9  11
ENDBRANCH   8   9
ENDBRANCH   7   8
ENDBRANCH   1   7
BRANCH   2  23
ATOM     23  O   UNL     1      -9.125   9.119  64.388  1.00  0.00    -0.386 OA
ATOM     24  H   UNL     1      -8.291   9.578  64.207  1.00  0.00     0.210 HD
ENDBRANCH   2  23
BRANCH   3  25
ATOM     25  O   UNL     1      -9.938  11.416  62.765  1.00  0.00    -0.386 OA
ATOM     26  H   UNL     1     -10.522  10.687  62.503  1.00  0.00     0.210 HD
ENDBRANCH   3  25
BRANCH   5  27
ATOM     27  O   UNL     1     -11.765  13.356  66.833  1.00  0.00    -0.457 OA
BRANCH  27  28
ATOM     28  C   UNL     1     -11.430  14.489  67.589  1.00  0.00     0.170 A 
ATOM     29  C   UNL     1     -11.570  14.430  69.065  1.00  0.00     0.201 A 
ATOM     30  C   UNL     1     -10.980  15.647  67.003  1.00  0.00     0.064 A 
ATOM     31  C   UNL     1     -11.243  15.518  69.830  1.00  0.00     0.163 A 
ATOM     32  C   UNL     1     -10.632  16.828  67.832  1.00  0.00     0.066 A 
ATOM     33  C   UNL     1     -10.754  16.763  69.182  1.00  0.00     0.064 A 
BRANCH  29  34
ATOM     34  O   UNL     1     -12.034  13.256  69.668  1.00  0.00    -0.501 OA
ATOM     35  H   UNL     1     -12.591  12.673  69.192  1.00  0.00     0.292 HD
ENDBRANCH  29  34
BRANCH  31  36
ATOM     36  O   UNL     1     -11.379  15.438  71.219  1.00  0.00    -0.503 OA
ATOM     37  H   UNL     1     -12.019  15.962  71.658  1.00  0.00     0.292 HD
ENDBRANCH  31  36
BRANCH  32  38
ATOM     38  C   UNL     1     -10.146  18.088  67.148  1.00  0.00     0.337 C 
ATOM     39  O   UNL     1      -9.941  18.094  65.944  1.00  0.00    -0.245 OA
BRANCH  38  40
ATOM     40  O   UNL     1      -9.944  19.184  67.880  1.00  0.00    -0.477 OA
ATOM     41  H   UNL     1     -10.273  20.011  67.587  1.00  0.00     0.295 HD
ENDBRANCH  38  40
ENDBRANCH  32  38
ENDBRANCH  27  28
ENDBRANCH   5  27
BRANCH   4  42
ATOM     42  O   UNL     1     -12.178  12.095  64.357  1.00  0.00    -0.383 OA
ATOM     43  H   UNL     1     -12.806  12.804  64.568  1.00  0.00     0.210 HD
ENDBRANCH   4  42
TORSDOF 16

ENDMDL
MODEL 9
REMARK VINA RESULT:    -6.403      5.319      9.817
REMARK INTER + INTRA:         -12.308
REMARK INTER:                 -11.083
REMARK INTRA:                  -1.225
REMARK UNBOUND:                -1.601
REMARK SMILES O=C(O)c1cc(O)c(O)c(O[C@H]2O[C@H](COC(=O)c3cc(O)c(O)c(O)c3)[C@H](O)[C@@H](O)[C@H]2O)c1
REMARK SMILES IDX 14 1 28 2 30 3 32 4 12 5 13 6 15 7 16 8 17 9 18 10 19 11
REMARK SMILES IDX 20 12 27 13 21 14 25 15 23 16 22 17 26 19 24 21 29 23 31 25
REMARK SMILES IDX 11 27 10 28 8 29 34 30 6 31 4 32 5 33 9 34 7 36 2 38 1 39
REMARK SMILES IDX 3 40 33 42
REMARK H PARENT 22 18 26 20 24 22 29 24 31 26 9 35 7 37 3 41 33 43
REMARK INDEX MAP 9 1 10 2 11 3 12 4 13 5 26 6 8 7 24 8 7 9 25 10 1 11 2 12
REMARK INDEX MAP 6 13 3 14 5 15 4 16 21 17 46 18 23 19 48 20 22 21 47 22 33 23
REMARK INDEX MAP 53 24 32 25 52 26 27 27 14 28 15 29 19 30 16 31 18 32 17 33
REMARK INDEX MAP 28 34 49 35 29 36 50 37 20 38 31 39 30 40 51 41 34 42 54 43
REMARK Flexibility Score: inf
ROOT
ATOM      1  C   UNL     1      -7.231  18.293  66.870  1.00  0.00     0.191 C 
ATOM      2  C   UNL     1      -7.983  19.481  67.533  1.00  0.00     0.178 C 
ATOM      3  C   UNL     1      -9.318  19.011  68.171  1.00  0.00     0.180 C 
ATOM      4  C   UNL     1     -10.154  18.262  67.105  1.00  0.00     0.214 C 
ATOM      5  C   UNL     1      -9.312  17.092  66.535  1.00  0.00     0.339 C 
ATOM      6  O   UNL     1      -8.089  17.584  65.950  1.00  0.00    -0.330 OA
ENDROOT
BRANCH   1   7
ATOM      7  C   UNL     1      -6.506  17.361  67.882  1.00  0.00     0.266 C 
BRANCH   7   8
ATOM      8  O   UNL     1      -5.191  17.906  68.128  1.00  0.00    -0.458 OA
BRANCH   8   9
ATOM      9  C   UNL     1      -4.751  17.818  69.394  1.00  0.00     0.340 C 
ATOM     10  O   UNL     1      -5.070  16.843  70.051  1.00  0.00    -0.245 OA
BRANCH   9  11
ATOM     11  C   UNL     1      -3.896  18.868  70.069  1.00  0.00     0.066 A 
ATOM     12  C   UNL     1      -4.518  19.970  70.842  1.00  0.00     0.064 A 
ATOM     13  C   UNL     1      -2.540  18.799  69.960  1.00  0.00     0.064 A 
ATOM     14  C   UNL     1      -3.747  20.893  71.460  1.00  0.00     0.163 A 
ATOM     15  C   UNL     1      -1.686  19.813  70.630  1.00  0.00     0.163 A 
ATOM     16  C   UNL     1      -2.267  20.815  71.355  1.00  0.00     0.201 A 
BRANCH  14  17
ATOM     17  O   UNL     1      -4.353  21.916  72.189  1.00  0.00    -0.503 OA
ATOM     18  H   UNL     1      -5.076  21.725  72.753  1.00  0.00     0.292 HD
ENDBRANCH  14  17
BRANCH  15  19
ATOM     19  O   UNL     1      -0.293  19.759  70.537  1.00  0.00    -0.503 OA
ATOM     20  H   UNL     1       0.133  20.006  69.740  1.00  0.00     0.292 HD
ENDBRANCH  15  19
BRANCH  16  21
ATOM     21  O   UNL     1      -1.486  21.778  72.003  1.00  0.00    -0.501 OA
ATOM     22  H   UNL     1      -1.337  22.610  71.599  1.00  0.00     0.292 HD
ENDBRANCH  16  21
ENDBRANCH   9  11
ENDBRANCH   8   9
ENDBRANCH   7   8
ENDBRANCH   1   7
BRANCH   2  23
ATOM     23  O   UNL     1      -7.138  20.096  68.523  1.00  0.00    -0.386 OA
ATOM     24  H   UNL     1      -7.685  20.460  69.235  1.00  0.00     0.210 HD
ENDBRANCH   2  23
BRANCH   3  25
ATOM     25  O   UNL     1     -10.059  20.123  68.708  1.00  0.00    -0.386 OA
ATOM     26  H   UNL     1      -9.496  20.623  69.319  1.00  0.00     0.210 HD
ENDBRANCH   3  25
BRANCH   5  27
ATOM     27  O   UNL     1     -10.071  16.489  65.476  1.00  0.00    -0.457 OA
BRANCH  27  28
ATOM     28  C   UNL     1     -10.535  15.171  65.590  1.00  0.00     0.170 A 
ATOM     29  C   UNL     1     -11.541  14.679  64.615  1.00  0.00     0.201 A 
ATOM     30  C   UNL     1     -10.088  14.324  66.576  1.00  0.00     0.064 A 
ATOM     31  C   UNL     1     -12.007  13.394  64.696  1.00  0.00     0.163 A 
ATOM     32  C   UNL     1     -10.598  12.934  66.668  1.00  0.00     0.066 A 
ATOM     33  C   UNL     1     -11.511  12.490  65.766  1.00  0.00     0.064 A 
BRANCH  29  34
ATOM     34  O   UNL     1     -12.005  15.538  63.612  1.00  0.00    -0.501 OA
ATOM     35  H   UNL     1     -11.721  15.422  62.727  1.00  0.00     0.292 HD
ENDBRANCH  29  34
BRANCH  31  36
ATOM     36  O   UNL     1     -12.951  12.953  63.764  1.00  0.00    -0.503 OA
ATOM     37  H   UNL     1     -12.746  12.240  63.192  1.00  0.00     0.292 HD
ENDBRANCH  31  36
BRANCH  32  38
ATOM     38  C   UNL     1     -10.086  12.034  67.772  1.00  0.00     0.337 C 
ATOM     39  O   UNL     1     -10.526  10.901  67.895  1.00  0.00    -0.245 OA
BRANCH  38  40
ATOM     40  O   UNL     1      -9.152  12.499  68.603  1.00  0.00    -0.477 OA
ATOM     41  H   UNL     1      -9.345  12.604  69.514  1.00  0.00     0.295 HD
ENDBRANCH  38  40
ENDBRANCH  32  38
ENDBRANCH  27  28
ENDBRANCH   5  27
BRANCH   4  42
ATOM     42  O   UNL     1     -10.508  19.199  66.069  1.00  0.00    -0.383 OA
ATOM     43  H   UNL     1     -11.145  18.788  65.464  1.00  0.00     0.210 HD
ENDBRANCH   4  42
TORSDOF 16

ENDMDL
MODEL 10
REMARK VINA RESULT:    -6.382      2.681      7.985
REMARK INTER + INTRA:         -12.273
REMARK INTER:                 -10.672
REMARK INTRA:                  -1.601
REMARK UNBOUND:                -1.601
REMARK SMILES O=C(O)c1cc(O)c(O)c(O[C@H]2O[C@H](COC(=O)c3cc(O)c(O)c(O)c3)[C@H](O)[C@@H](O)[C@H]2O)c1
REMARK SMILES IDX 14 1 28 2 30 3 32 4 12 5 13 6 15 7 16 8 17 9 18 10 19 11
REMARK SMILES IDX 20 12 27 13 21 14 25 15 23 16 22 17 26 19 24 21 29 23 31 25
REMARK SMILES IDX 11 27 10 28 8 29 34 30 6 31 4 32 5 33 9 34 7 36 2 38 1 39
REMARK SMILES IDX 3 40 33 42
REMARK H PARENT 22 18 26 20 24 22 29 24 31 26 9 35 7 37 3 41 33 43
REMARK INDEX MAP 9 1 10 2 11 3 12 4 13 5 26 6 8 7 24 8 7 9 25 10 1 11 2 12
REMARK INDEX MAP 6 13 3 14 5 15 4 16 21 17 46 18 23 19 48 20 22 21 47 22 33 23
REMARK INDEX MAP 53 24 32 25 52 26 27 27 14 28 15 29 19 30 16 31 18 32 17 33
REMARK INDEX MAP 28 34 49 35 29 36 50 37 20 38 31 39 30 40 51 41 34 42 54 43
REMARK Flexibility Score: inf
ROOT
ATOM      1  C   UNL     1     -10.540  14.093  66.101  1.00  0.00     0.191 C 
ATOM      2  C   UNL     1     -11.015  14.276  64.632  1.00  0.00     0.178 C 
ATOM      3  C   UNL     1     -11.745  13.006  64.118  1.00  0.00     0.180 C 
ATOM      4  C   UNL     1     -10.830  11.775  64.328  1.00  0.00     0.214 C 
ATOM      5  C   UNL     1     -10.441  11.684  65.825  1.00  0.00     0.339 C 
ATOM      6  O   UNL     1      -9.764  12.884  66.248  1.00  0.00    -0.330 OA
ENDROOT
BRANCH   1   7
ATOM      7  C   UNL     1     -11.676  14.228  67.153  1.00  0.00     0.266 C 
BRANCH   7   8
ATOM      8  O   UNL     1     -11.781  15.621  67.522  1.00  0.00    -0.458 OA
BRANCH   8   9
ATOM      9  C   UNL     1     -10.759  16.113  68.241  1.00  0.00     0.340 C 
ATOM     10  O   UNL     1     -10.440  15.533  69.265  1.00  0.00    -0.245 OA
BRANCH   9  11
ATOM     11  C   UNL     1      -9.985  17.360  67.873  1.00  0.00     0.066 A 
ATOM     12  C   UNL     1      -8.591  17.553  68.340  1.00  0.00     0.064 A 
ATOM     13  C   UNL     1     -10.582  18.316  67.108  1.00  0.00     0.064 A 
ATOM     14  C   UNL     1      -7.899  18.660  67.990  1.00  0.00     0.163 A 
ATOM     15  C   UNL     1      -9.830  19.538  66.724  1.00  0.00     0.163 A 
ATOM     16  C   UNL     1      -8.540  19.700  67.144  1.00  0.00     0.201 A 
BRANCH  14  17
ATOM     17  O   UNL     1      -6.586  18.817  68.432  1.00  0.00    -0.503 OA
ATOM     18  H   UNL     1      -5.980  19.328  67.932  1.00  0.00     0.292 HD
ENDBRANCH  14  17
BRANCH  15  19
ATOM     19  O   UNL     1     -10.419  20.530  65.935  1.00  0.00    -0.503 OA
ATOM     20  H   UNL     1     -10.211  20.588  65.023  1.00  0.00     0.292 HD
ENDBRANCH  15  19
BRANCH  16  21
ATOM     21  O   UNL     1      -7.807  20.838  66.790  1.00  0.00    -0.501 OA
ATOM     22  H   UNL     1      -7.727  21.083  65.889  1.00  0.00     0.292 HD
ENDBRANCH  16  21
ENDBRANCH   9  11
ENDBRANCH   8   9
ENDBRANCH   7   8
ENDBRANCH   1   7
BRANCH   2  23
ATOM     23  O   UNL     1     -11.877  15.426  64.543  1.00  0.00    -0.386 OA
ATOM     24  H   UNL     1     -11.593  16.094  65.185  1.00  0.00     0.210 HD
ENDBRANCH   2  23
BRANCH   3  25
ATOM     25  O   UNL     1     -12.108  13.138  62.730  1.00  0.00    -0.386 OA
ATOM     26  H   UNL     1     -12.655  13.931  62.613  1.00  0.00     0.210 HD
ENDBRANCH   3  25
BRANCH   5  27
ATOM     27  O   UNL     1      -9.509  10.603  65.965  1.00  0.00    -0.457 OA
BRANCH  27  28
ATOM     28  C   UNL     1      -9.511   9.800  67.115  1.00  0.00     0.170 A 
ATOM     29  C   UNL     1      -8.709  10.229  68.289  1.00  0.00     0.201 A 
ATOM     30  C   UNL     1     -10.231   8.632  67.186  1.00  0.00     0.064 A 
ATOM     31  C   UNL     1      -8.699   9.469  69.428  1.00  0.00     0.163 A 
ATOM     32  C   UNL     1     -10.214   7.806  68.419  1.00  0.00     0.066 A 
ATOM     33  C   UNL     1      -9.485   8.210  69.490  1.00  0.00     0.064 A 
BRANCH  29  34
ATOM     34  O   UNL     1      -7.968  11.414  68.222  1.00  0.00    -0.501 OA
ATOM     35  H   UNL     1      -7.956  12.001  68.952  1.00  0.00     0.292 HD
ENDBRANCH  29  34
BRANCH  31  36
ATOM     36  O   UNL     1      -7.939   9.896  70.522  1.00  0.00    -0.503 OA
ATOM     37  H   UNL     1      -7.312   9.318  70.910  1.00  0.00     0.292 HD
ENDBRANCH  31  36
BRANCH  32  38
ATOM     38  C   UNL     1     -11.016   6.522  68.455  1.00  0.00     0.337 C 
ATOM     39  O   UNL     1     -11.299   6.005  69.524  1.00  0.00    -0.245 OA
BRANCH  38  40
ATOM     40  O   UNL     1     -11.403   5.970  67.305  1.00  0.00    -0.477 OA
ATOM     41  H   UNL     1     -12.283   5.662  67.204  1.00  0.00     0.295 HD
ENDBRANCH  38  40
ENDBRANCH  32  38
ENDBRANCH  27  28
ENDBRANCH   5  27
BRANCH   4  42
ATOM     42  O   UNL     1      -9.663  11.935  63.498  1.00  0.00    -0.383 OA
ATOM     43  H   UNL     1      -8.927  11.425  63.872  1.00  0.00     0.210 HD
ENDBRANCH   4  42
TORSDOF 16

ENDMDL
