MOL000554
  PyMOL2.4          3D                             0

 34 36  0  0  0  0  0  0  0  0999 V2000
   -0.9805    2.7398    1.3979 C   0  0  0  0  0  0  0  0  0  0  0  0
   -2.3833    3.2140    1.3150 C   0  0  0  0  0  0  0  0  0  0  0  0
   -3.1308    3.3350    2.4340 C   0  0  0  0  0  0  0  0  0  0  0  0
   -2.5453    3.0052    3.7591 C   0  0  0  0  0  0  0  0  0  0  0  0
   -1.2485    2.5842    3.8459 C   0  0  0  0  0  0  0  0  0  0  0  0
   -0.4342    2.4484    2.6109 C   0  0  0  0  0  0  0  0  0  0  0  0
   -0.1431    2.5798    0.1478 C   0  0  0  0  0  0  0  0  0  0  0  0
   -1.4022    0.6851   -0.4868 C   0  0  0  0  0  0  0  0  0  0  0  0
   -1.3851   -0.4152   -1.5861 C   0  0  0  0  0  0  0  0  0  0  0  0
   -2.5874   -1.3985   -1.5128 C   0  0  0  0  0  0  0  0  0  0  0  0
   -2.3974   -2.4312   -0.3696 C   0  0  0  0  0  0  0  0  0  0  0  0
   -1.0283   -3.1330   -0.5427 C   0  0  0  0  0  0  0  0  0  0  0  0
    0.0891   -2.0592   -0.5794 C   0  0  0  0  0  0  0  0  0  0  0  0
    2.4853   -2.0028   -1.1575 C   0  0  0  0  0  0  0  0  0  0  0  0
    3.5741   -2.6740   -1.9114 C   0  0  0  0  0  0  0  0  0  0  0  0
    4.7132   -1.9848   -2.2327 C   0  0  0  0  0  0  0  0  0  0  0  0
    4.8642   -0.5653   -1.8227 C   0  0  0  0  0  0  0  0  0  0  0  0
    3.8773    0.0536   -1.1263 C   0  0  0  0  0  0  0  0  0  0  0  0
    2.6404   -0.6898   -0.7828 C   0  0  0  0  0  0  0  0  0  0  0  0
    4.0118    1.4965   -0.6895 C   0  0  0  0  0  0  0  0  0  0  0  0
   -4.4513    3.7744    2.3329 O   0  0  0  0  0  0  0  0  0  0  0  0
   -3.3360    3.1335    4.9061 O   0  0  0  0  0  0  0  0  0  0  0  0
   -0.7111    2.2846    5.1012 O   0  0  0  0  0  0  0  0  0  0  0  0
   -0.3203    1.6033   -0.7569 O   0  0  0  0  0  0  0  0  0  0  0  0
    0.7573    3.3814   -0.0349 O   0  0  0  0  0  0  0  0  0  0  0  0
   -0.1334   -1.1310   -1.6595 O   0  0  0  0  0  0  0  0  0  0  0  0
    1.3274   -2.7322   -0.8495 O   0  0  0  0  0  0  0  0  0  0  0  0
    3.4263   -4.0134   -2.2909 O   0  0  0  0  0  0  0  0  0  0  0  0
    5.7229   -2.6385   -2.9461 O   0  0  0  0  0  0  0  0  0  0  0  0
    3.0766    2.0235    0.1027 O   0  0  0  0  0  0  0  0  0  0  0  0
    4.9661    2.1637   -1.0586 O   0  0  0  0  0  0  0  0  0  0  0  0
   -3.4650   -3.3969   -0.3566 O   0  0  0  0  0  0  0  0  0  0  0  0
   -3.8074   -0.6564   -1.3273 O   0  0  0  0  0  0  0  0  0  0  0  0
   -1.0609   -3.8884   -1.7703 O   0  0  0  0  0  0  0  0  0  0  0  0
  1  2  1  0  0  0  0
  1  6  2  0  0  0  0
  1  7  1  0  0  0  0
  2  3  2  0  0  0  0
  3  4  1  0  0  0  0
  3 21  1  0  0  0  0
  4  5  2  0  0  0  0
  4 22  1  0  0  0  0
  5  6  1  0  0  0  0
  5 23  1  0  0  0  0
  7 24  1  0  0  0  0
  7 25  2  0  0  0  0
  8  9  1  0  0  0  0
  9 10  1  0  0  0  0
  9 26  1  0  0  0  0
 10 11  1  0  0  0  0
 10 33  1  0  0  0  0
 11 12  1  0  0  0  0
 11 32  1  0  0  0  0
 12 13  1  0  0  0  0
 12 34  1  0  0  0  0
 13 26  1  0  0  0  0
 13 27  1  0  0  0  0
 14 15  1  0  0  0  0
 14 19  2  0  0  0  0
 15 16  2  0  0  0  0
 15 28  1  0  0  0  0
 16 17  1  0  0  0  0
 16 29  1  0  0  0  0
 17 18  2  0  0  0  0
 18 19  1  0  0  0  0
 18 20  1  0  0  0  0
 20 30  1  0  0  0  0
 20 31  2  0  0  0  0
  8 24  1  0  0  0  0
 14 27  1  0  0  0  0
M  END
$$$$
