MODEL 1
REMARK VINA RESULT:    -5.088      0.000      0.000
REMARK INTER + INTRA:          -7.218
REMARK INTER:                  -6.813
REMARK INTRA:                  -0.405
REMARK UNBOUND:                -0.494
REMARK SMILES CC[C@@H](Cc1c(I)cc(I)c(N2CCCC2=O)c1I)C(=O)O
REMARK SMILES IDX 4 1 5 2 11 3 9 4 18 5 8 6 10 7 19 8 6 9 7 10 12 11 13 12
REMARK SMILES IDX 16 13 14 14 15 15 17 16 3 17 2 18 1 19 20 20 21 21 22 22
REMARK H PARENT 22 23
REMARK INDEX MAP 6 1 9 2 7 3 12 4 10 5 14 6 21 7 20 8 13 9 22 10 1 11 2 12
REMARK INDEX MAP 8 13 3 14 4 15 17 16 5 17 11 18 16 19 15 20 19 21 18 22 38 23
REMARK Flexibility Score: inf
ROOT
ATOM      1  C   UNL     1     -10.038  13.083  65.954  1.00  0.00     0.052 C 
ENDROOT
BRANCH   1   2
ATOM      2  C   UNL     1     -10.332  12.030  67.039  1.00  0.00    -0.019 A 
ATOM      3  C   UNL     1     -10.215   9.662  67.925  1.00  0.00     0.063 A 
ATOM      4  C   UNL     1     -10.778  10.063  69.145  1.00  0.00     0.037 A 
ATOM      5  C   UNL     1      -9.962  10.655  66.854  1.00  0.00     0.040 A 
ATOM      6  C   UNL     1     -11.187  11.472  69.333  1.00  0.00     0.031 A 
ATOM      7  I   UNL     1     -11.054   8.710  70.660  1.00  0.00    -0.042 I 
ATOM      8  I   UNL     1      -9.074   9.996  65.122  1.00  0.00    -0.042 I 
ATOM      9  C   UNL     1     -11.004  12.417  68.312  1.00  0.00     0.019 A 
ATOM     10  I   UNL     1     -11.700  14.327  68.631  1.00  0.00    -0.043 I 
BRANCH   3  11
ATOM     11  N   UNL     1      -9.894   8.301  67.704  1.00  0.00    -0.269 N 
ATOM     12  C   UNL     1     -10.849   7.383  67.112  1.00  0.00     0.114 C 
ATOM     13  C   UNL     1      -8.690   7.776  67.980  1.00  0.00     0.220 C 
ATOM     14  C   UNL     1      -9.864   6.319  66.568  1.00  0.00     0.029 C 
ATOM     15  C   UNL     1      -8.694   6.330  67.584  1.00  0.00     0.098 C 
ATOM     16  O   UNL     1      -7.737   8.358  68.469  1.00  0.00    -0.275 OA
ENDBRANCH   3  11
ENDBRANCH   1   2
BRANCH   1  17
ATOM     17  C   UNL     1     -11.279  13.422  65.071  1.00  0.00     0.102 C 
BRANCH  17  18
ATOM     18  C   UNL     1     -11.246  12.582  63.758  1.00  0.00     0.011 C 
ATOM     19  C   UNL     1     -12.584  11.851  63.468  1.00  0.00     0.004 C 
ENDBRANCH  17  18
BRANCH  17  20
ATOM     20  C   UNL     1     -11.335  14.907  64.757  1.00  0.00     0.308 C 
ATOM     21  O   UNL     1     -10.622  15.707  65.341  1.00  0.00    -0.251 OA
BRANCH  20  22
ATOM     22  O   UNL     1     -12.170  15.359  63.818  1.00  0.00    -0.480 OA
ATOM     23  H   UNL     1     -12.352  16.276  63.753  1.00  0.00     0.295 HD
ENDBRANCH  20  22
ENDBRANCH  17  20
ENDBRANCH   1  17
TORSDOF 6

ENDMDL
MODEL 2
REMARK VINA RESULT:    -5.083      2.210      3.499
REMARK INTER + INTRA:          -7.212
REMARK INTER:                  -6.882
REMARK INTRA:                  -0.330
REMARK UNBOUND:                -0.494
REMARK SMILES CC[C@@H](Cc1c(I)cc(I)c(N2CCCC2=O)c1I)C(=O)O
REMARK SMILES IDX 4 1 5 2 11 3 9 4 18 5 8 6 10 7 19 8 6 9 7 10 12 11 13 12
REMARK SMILES IDX 16 13 14 14 15 15 17 16 3 17 2 18 1 19 20 20 21 21 22 22
REMARK H PARENT 22 23
REMARK INDEX MAP 6 1 9 2 7 3 12 4 10 5 14 6 21 7 20 8 13 9 22 10 1 11 2 12
REMARK INDEX MAP 8 13 3 14 4 15 17 16 5 17 11 18 16 19 15 20 19 21 18 22 38 23
REMARK Flexibility Score: inf
ROOT
ATOM      1  C   UNL     1     -11.788  12.175  66.458  1.00  0.00     0.052 C 
ENDROOT
BRANCH   1   2
ATOM      2  C   UNL     1     -10.918  10.947  66.787  1.00  0.00    -0.019 A 
ATOM      3  C   UNL     1     -10.041   9.219  68.415  1.00  0.00     0.063 A 
ATOM      4  C   UNL     1      -9.370   8.549  67.382  1.00  0.00     0.037 A 
ATOM      5  C   UNL     1     -10.849  10.426  68.123  1.00  0.00     0.040 A 
ATOM      6  C   UNL     1      -9.414   9.094  66.007  1.00  0.00     0.031 A 
ATOM      7  I   UNL     1      -8.317   6.832  67.764  1.00  0.00    -0.042 I 
ATOM      8  I   UNL     1     -11.854  11.310  69.683  1.00  0.00    -0.042 I 
ATOM      9  C   UNL     1     -10.131  10.266  65.721  1.00  0.00     0.019 A 
ATOM     10  I   UNL     1     -10.045  11.003  63.802  1.00  0.00    -0.043 I 
BRANCH   3  11
ATOM     11  N   UNL     1      -9.941   8.752  69.748  1.00  0.00    -0.269 N 
ATOM     12  C   UNL     1     -10.865   7.765  70.276  1.00  0.00     0.114 C 
ATOM     13  C   UNL     1      -8.977   9.145  70.593  1.00  0.00     0.220 C 
ATOM     14  C   UNL     1      -9.995   7.206  71.428  1.00  0.00     0.029 C 
ATOM     15  C   UNL     1      -9.154   8.422  71.895  1.00  0.00     0.098 C 
ATOM     16  O   UNL     1      -8.093   9.954  70.365  1.00  0.00    -0.275 OA
ENDBRANCH   3  11
ENDBRANCH   1   2
BRANCH   1  17
ATOM     17  C   UNL     1     -10.956  13.415  66.004  1.00  0.00     0.102 C 
BRANCH  17  18
ATOM     18  C   UNL     1     -10.496  14.234  67.248  1.00  0.00     0.011 C 
ATOM     19  C   UNL     1     -11.668  14.936  67.984  1.00  0.00     0.004 C 
ENDBRANCH  17  18
BRANCH  17  20
ATOM     20  C   UNL     1     -11.756  14.289  65.052  1.00  0.00     0.308 C 
ATOM     21  O   UNL     1     -12.948  14.099  64.866  1.00  0.00    -0.251 OA
BRANCH  20  22
ATOM     22  O   UNL     1     -11.159  15.294  64.408  1.00  0.00    -0.480 OA
ATOM     23  H   UNL     1     -11.655  15.845  63.836  1.00  0.00     0.295 HD
ENDBRANCH  20  22
ENDBRANCH  17  20
ENDBRANCH   1  17
TORSDOF 6

ENDMDL
MODEL 3
REMARK VINA RESULT:    -4.963      2.296      2.772
REMARK INTER + INTRA:          -7.053
REMARK INTER:                  -6.690
REMARK INTRA:                  -0.363
REMARK UNBOUND:                -0.494
REMARK SMILES CC[C@@H](Cc1c(I)cc(I)c(N2CCCC2=O)c1I)C(=O)O
REMARK SMILES IDX 4 1 5 2 11 3 9 4 18 5 8 6 10 7 19 8 6 9 7 10 12 11 13 12
REMARK SMILES IDX 16 13 14 14 15 15 17 16 3 17 2 18 1 19 20 20 21 21 22 22
REMARK H PARENT 22 23
REMARK INDEX MAP 6 1 9 2 7 3 12 4 10 5 14 6 21 7 20 8 13 9 22 10 1 11 2 12
REMARK INDEX MAP 8 13 3 14 4 15 17 16 5 17 11 18 16 19 15 20 19 21 18 22 38 23
REMARK Flexibility Score: inf
ROOT
ATOM      1  C   UNL     1      -9.667  14.589  65.478  1.00  0.00     0.052 C 
ENDROOT
BRANCH   1   2
ATOM      2  C   UNL     1      -9.232  13.471  66.443  1.00  0.00    -0.019 A 
ATOM      3  C   UNL     1      -8.999  11.024  67.047  1.00  0.00     0.063 A 
ATOM      4  C   UNL     1      -8.296  11.352  68.214  1.00  0.00     0.037 A 
ATOM      5  C   UNL     1      -9.461  12.089  66.127  1.00  0.00     0.040 A 
ATOM      6  C   UNL     1      -8.078  12.774  68.562  1.00  0.00     0.031 A 
ATOM      7  I   UNL     1      -7.582   9.880  69.450  1.00  0.00    -0.042 I 
ATOM      8  I   UNL     1     -10.428  11.520  64.405  1.00  0.00    -0.042 I 
ATOM      9  C   UNL     1      -8.554  13.799  67.729  1.00  0.00     0.019 A 
ATOM     10  I   UNL     1      -8.294  15.743  68.351  1.00  0.00    -0.043 I 
BRANCH   3  11
ATOM     11  N   UNL     1      -9.283   9.670  66.745  1.00  0.00    -0.269 N 
ATOM     12  C   UNL     1      -8.380   8.867  65.942  1.00  0.00     0.114 C 
ATOM     13  C   UNL     1     -10.366   9.027  67.206  1.00  0.00     0.220 C 
ATOM     14  C   UNL     1      -8.811   7.459  66.420  1.00  0.00     0.029 C 
ATOM     15  C   UNL     1     -10.323   7.607  66.725  1.00  0.00     0.098 C 
ATOM     16  O   UNL     1     -11.251   9.495  67.902  1.00  0.00    -0.275 OA
ENDBRANCH   3  11
ENDBRANCH   1   2
BRANCH   1  17
ATOM     17  C   UNL     1     -11.090  15.150  65.786  1.00  0.00     0.102 C 
BRANCH  17  18
ATOM     18  C   UNL     1     -11.869  14.156  66.700  1.00  0.00     0.011 C 
ATOM     19  C   UNL     1     -12.118  14.709  68.129  1.00  0.00     0.004 C 
ENDBRANCH  17  18
BRANCH  17  20
ATOM     20  C   UNL     1     -11.860  15.417  64.504  1.00  0.00     0.308 C 
ATOM     21  O   UNL     1     -12.744  14.665  64.126  1.00  0.00    -0.251 OA
BRANCH  20  22
ATOM     22  O   UNL     1     -11.581  16.499  63.772  1.00  0.00    -0.480 OA
ATOM     23  H   UNL     1     -12.110  16.711  63.028  1.00  0.00     0.295 HD
ENDBRANCH  20  22
ENDBRANCH  17  20
ENDBRANCH   1  17
TORSDOF 6

ENDMDL
MODEL 4
REMARK VINA RESULT:    -4.939      5.665      8.702
REMARK INTER + INTRA:          -7.021
REMARK INTER:                  -6.709
REMARK INTRA:                  -0.312
REMARK UNBOUND:                -0.494
REMARK SMILES CC[C@@H](Cc1c(I)cc(I)c(N2CCCC2=O)c1I)C(=O)O
REMARK SMILES IDX 4 1 5 2 11 3 9 4 18 5 8 6 10 7 19 8 6 9 7 10 12 11 13 12
REMARK SMILES IDX 16 13 14 14 15 15 17 16 3 17 2 18 1 19 20 20 21 21 22 22
REMARK H PARENT 22 23
REMARK INDEX MAP 6 1 9 2 7 3 12 4 10 5 14 6 21 7 20 8 13 9 22 10 1 11 2 12
REMARK INDEX MAP 8 13 3 14 4 15 17 16 5 17 11 18 16 19 15 20 19 21 18 22 38 23
REMARK Flexibility Score: inf
ROOT
ATOM      1  C   UNL     1     -10.370  15.397  67.158  1.00  0.00     0.052 C 
ENDROOT
BRANCH   1   2
ATOM      2  C   UNL     1      -8.913  15.889  67.251  1.00  0.00    -0.019 A 
ATOM      3  C   UNL     1      -7.190  17.742  67.224  1.00  0.00     0.063 A 
ATOM      4  C   UNL     1      -6.172  16.835  67.552  1.00  0.00     0.037 A 
ATOM      5  C   UNL     1      -8.590  17.279  67.090  1.00  0.00     0.040 A 
ATOM      6  C   UNL     1      -6.491  15.398  67.694  1.00  0.00     0.031 A 
ATOM      7  I   UNL     1      -4.245  17.483  67.820  1.00  0.00    -0.042 I 
ATOM      8  I   UNL     1     -10.031  18.683  66.671  1.00  0.00    -0.042 I 
ATOM      9  C   UNL     1      -7.803  14.931  67.519  1.00  0.00     0.019 A 
ATOM     10  I   UNL     1      -8.127  12.903  67.633  1.00  0.00    -0.043 I 
BRANCH   3  11
ATOM     11  N   UNL     1      -6.882  19.107  67.007  1.00  0.00    -0.269 N 
ATOM     12  C   UNL     1      -6.852  20.060  68.101  1.00  0.00     0.114 C 
ATOM     13  C   UNL     1      -6.560  19.605  65.804  1.00  0.00     0.220 C 
ATOM     14  C   UNL     1      -5.933  21.133  67.467  1.00  0.00     0.029 C 
ATOM     15  C   UNL     1      -6.258  21.067  65.953  1.00  0.00     0.098 C 
ATOM     16  O   UNL     1      -6.512  18.993  64.751  1.00  0.00    -0.275 OA
ENDBRANCH   3  11
ENDBRANCH   1   2
BRANCH   1  17
ATOM     17  C   UNL     1     -10.913  14.821  68.502  1.00  0.00     0.102 C 
BRANCH  17  18
ATOM     18  C   UNL     1     -11.894  13.642  68.221  1.00  0.00     0.011 C 
ATOM     19  C   UNL     1     -12.001  13.285  66.714  1.00  0.00     0.004 C 
ENDBRANCH  17  18
BRANCH  17  20
ATOM     20  C   UNL     1     -11.594  15.903  69.323  1.00  0.00     0.308 C 
ATOM     21  O   UNL     1     -10.993  16.905  69.676  1.00  0.00    -0.251 OA
BRANCH  20  22
ATOM     22  O   UNL     1     -12.879  15.772  69.662  1.00  0.00    -0.480 OA
ATOM     23  H   UNL     1     -13.159  15.989  70.530  1.00  0.00     0.295 HD
ENDBRANCH  20  22
ENDBRANCH  17  20
ENDBRANCH   1  17
TORSDOF 6

ENDMDL
MODEL 5
REMARK VINA RESULT:    -4.756      2.669      4.207
REMARK INTER + INTRA:          -6.779
REMARK INTER:                  -6.310
REMARK INTRA:                  -0.470
REMARK UNBOUND:                -0.494
REMARK SMILES CC[C@@H](Cc1c(I)cc(I)c(N2CCCC2=O)c1I)C(=O)O
REMARK SMILES IDX 4 1 5 2 11 3 9 4 18 5 8 6 10 7 19 8 6 9 7 10 12 11 13 12
REMARK SMILES IDX 16 13 14 14 15 15 17 16 3 17 2 18 1 19 20 20 21 21 22 22
REMARK H PARENT 22 23
REMARK INDEX MAP 6 1 9 2 7 3 12 4 10 5 14 6 21 7 20 8 13 9 22 10 1 11 2 12
REMARK INDEX MAP 8 13 3 14 4 15 17 16 5 17 11 18 16 19 15 20 19 21 18 22 38 23
REMARK Flexibility Score: inf
ROOT
ATOM      1  C   UNL     1     -11.705  12.044  67.572  1.00  0.00     0.052 C 
ENDROOT
BRANCH   1   2
ATOM      2  C   UNL     1     -11.130  10.658  67.921  1.00  0.00    -0.019 A 
ATOM      3  C   UNL     1     -10.813   8.725  69.522  1.00  0.00     0.063 A 
ATOM      4  C   UNL     1     -10.148   7.983  68.535  1.00  0.00     0.037 A 
ATOM      5  C   UNL     1     -11.337  10.076  69.217  1.00  0.00     0.040 A 
ATOM      6  C   UNL     1      -9.907   8.585  67.206  1.00  0.00     0.031 A 
ATOM      7  I   UNL     1      -9.493   6.080  68.926  1.00  0.00    -0.042 I 
ATOM      8  I   UNL     1     -12.356  11.069  70.699  1.00  0.00    -0.042 I 
ATOM      9  C   UNL     1     -10.350   9.885  66.914  1.00  0.00     0.019 A 
ATOM     10  I   UNL     1      -9.876  10.673  65.074  1.00  0.00    -0.043 I 
BRANCH   3  11
ATOM     11  N   UNL     1     -10.978   8.189  70.823  1.00  0.00    -0.269 N 
ATOM     12  C   UNL     1     -12.111   7.346  71.156  1.00  0.00     0.114 C 
ATOM     13  C   UNL     1     -10.095   8.382  71.813  1.00  0.00     0.220 C 
ATOM     14  C   UNL     1     -11.513   6.602  72.375  1.00  0.00     0.029 C 
ATOM     15  C   UNL     1     -10.567   7.641  73.029  1.00  0.00     0.098 C 
ATOM     16  O   UNL     1      -9.072   9.043  71.760  1.00  0.00    -0.275 OA
ENDBRANCH   3  11
ENDBRANCH   1   2
BRANCH   1  17
ATOM     17  C   UNL     1     -10.906  13.221  68.213  1.00  0.00     0.102 C 
BRANCH  17  18
ATOM     18  C   UNL     1     -11.873  14.391  68.570  1.00  0.00     0.011 C 
ATOM     19  C   UNL     1     -11.430  15.186  69.827  1.00  0.00     0.004 C 
ENDBRANCH  17  18
BRANCH  17  20
ATOM     20  C   UNL     1      -9.804  13.701  67.284  1.00  0.00     0.308 C 
ATOM     21  O   UNL     1      -8.634  13.416  67.488  1.00  0.00    -0.251 OA
BRANCH  20  22
ATOM     22  O   UNL     1     -10.107  14.440  66.215  1.00  0.00    -0.480 OA
ATOM     23  H   UNL     1      -9.746  15.300  66.121  1.00  0.00     0.295 HD
ENDBRANCH  20  22
ENDBRANCH  17  20
ENDBRANCH   1  17
TORSDOF 6

ENDMDL
MODEL 6
REMARK VINA RESULT:    -4.650      4.345      7.564
REMARK INTER + INTRA:          -6.639
REMARK INTER:                  -6.039
REMARK INTRA:                  -0.600
REMARK UNBOUND:                -0.494
REMARK SMILES CC[C@@H](Cc1c(I)cc(I)c(N2CCCC2=O)c1I)C(=O)O
REMARK SMILES IDX 4 1 5 2 11 3 9 4 18 5 8 6 10 7 19 8 6 9 7 10 12 11 13 12
REMARK SMILES IDX 16 13 14 14 15 15 17 16 3 17 2 18 1 19 20 20 21 21 22 22
REMARK H PARENT 22 23
REMARK INDEX MAP 6 1 9 2 7 3 12 4 10 5 14 6 21 7 20 8 13 9 22 10 1 11 2 12
REMARK INDEX MAP 8 13 3 14 4 15 17 16 5 17 11 18 16 19 15 20 19 21 18 22 38 23
REMARK Flexibility Score: inf
ROOT
ATOM      1  C   UNL     1      -9.136  12.420  66.725  1.00  0.00     0.052 C 
ENDROOT
BRANCH   1   2
ATOM      2  C   UNL     1      -8.420  13.689  67.225  1.00  0.00    -0.019 A 
ATOM      3  C   UNL     1      -8.362  16.182  67.656  1.00  0.00     0.063 A 
ATOM      4  C   UNL     1      -7.114  16.070  68.285  1.00  0.00     0.037 A 
ATOM      5  C   UNL     1      -9.047  14.978  67.132  1.00  0.00     0.040 A 
ATOM      6  C   UNL     1      -6.449  14.751  68.362  1.00  0.00     0.031 A 
ATOM      7  I   UNL     1      -6.198  17.721  69.085  1.00  0.00    -0.042 I 
ATOM      8  I   UNL     1     -10.902  15.220  66.282  1.00  0.00    -0.042 I 
ATOM      9  C   UNL     1      -7.058  13.606  67.825  1.00  0.00     0.019 A 
ATOM     10  I   UNL     1      -6.009  11.838  67.887  1.00  0.00    -0.043 I 
BRANCH   3  11
ATOM     11  N   UNL     1      -8.971  17.452  67.506  1.00  0.00    -0.269 N 
ATOM     12  C   UNL     1      -9.931  17.950  68.473  1.00  0.00     0.114 C 
ATOM     13  C   UNL     1      -8.680  18.291  66.501  1.00  0.00     0.220 C 
ATOM     14  C   UNL     1      -9.794  19.467  68.195  1.00  0.00     0.029 C 
ATOM     15  C   UNL     1      -9.476  19.550  66.680  1.00  0.00     0.098 C 
ATOM     16  O   UNL     1      -7.902  18.090  65.585  1.00  0.00    -0.275 OA
ENDBRANCH   3  11
ENDBRANCH   1   2
BRANCH   1  17
ATOM     17  C   UNL     1      -9.682  11.525  67.881  1.00  0.00     0.102 C 
BRANCH  17  18
ATOM     18  C   UNL     1      -9.799  10.046  67.401  1.00  0.00     0.011 C 
ATOM     19  C   UNL     1      -9.761   9.902  65.856  1.00  0.00     0.004 C 
ENDBRANCH  17  18
BRANCH  17  20
ATOM     20  C   UNL     1     -11.024  12.036  68.378  1.00  0.00     0.308 C 
ATOM     21  O   UNL     1     -12.055  11.810  67.766  1.00  0.00    -0.251 OA
BRANCH  20  22
ATOM     22  O   UNL     1     -11.091  12.738  69.512  1.00  0.00    -0.480 OA
ATOM     23  H   UNL     1     -11.914  13.076  69.806  1.00  0.00     0.295 HD
ENDBRANCH  20  22
ENDBRANCH  17  20
ENDBRANCH   1  17
TORSDOF 6

ENDMDL
MODEL 7
REMARK VINA RESULT:    -4.538      5.738      7.734
REMARK INTER + INTRA:          -6.491
REMARK INTER:                  -5.893
REMARK INTRA:                  -0.598
REMARK UNBOUND:                -0.494
REMARK SMILES CC[C@@H](Cc1c(I)cc(I)c(N2CCCC2=O)c1I)C(=O)O
REMARK SMILES IDX 4 1 5 2 11 3 9 4 18 5 8 6 10 7 19 8 6 9 7 10 12 11 13 12
REMARK SMILES IDX 16 13 14 14 15 15 17 16 3 17 2 18 1 19 20 20 21 21 22 22
REMARK H PARENT 22 23
REMARK INDEX MAP 6 1 9 2 7 3 12 4 10 5 14 6 21 7 20 8 13 9 22 10 1 11 2 12
REMARK INDEX MAP 8 13 3 14 4 15 17 16 5 17 11 18 16 19 15 20 19 21 18 22 38 23
REMARK Flexibility Score: inf
ROOT
ATOM      1  C   UNL     1      -6.953  18.995  68.737  1.00  0.00     0.052 C 
ENDROOT
BRANCH   1   2
ATOM      2  C   UNL     1      -7.202  17.491  68.521  1.00  0.00    -0.019 A 
ATOM      3  C   UNL     1      -8.650  15.572  67.731  1.00  0.00     0.063 A 
ATOM      4  C   UNL     1      -7.624  14.654  67.996  1.00  0.00     0.037 A 
ATOM      5  C   UNL     1      -8.442  17.018  67.972  1.00  0.00     0.040 A 
ATOM      6  C   UNL     1      -6.353  15.129  68.586  1.00  0.00     0.031 A 
ATOM      7  I   UNL     1      -7.876  12.661  67.588  1.00  0.00    -0.042 I 
ATOM      8  I   UNL     1      -9.974  18.302  67.496  1.00  0.00    -0.042 I 
ATOM      9  C   UNL     1      -6.156  16.489  68.871  1.00  0.00     0.019 A 
ATOM     10  I   UNL     1      -4.397  17.036  69.786  1.00  0.00    -0.043 I 
BRANCH   3  11
ATOM     11  N   UNL     1      -9.900  15.118  67.241  1.00  0.00    -0.269 N 
ATOM     12  C   UNL     1     -10.168  15.030  65.818  1.00  0.00     0.114 C 
ATOM     13  C   UNL     1     -10.894  14.704  68.040  1.00  0.00     0.220 C 
ATOM     14  C   UNL     1     -11.309  13.984  65.848  1.00  0.00     0.029 C 
ATOM     15  C   UNL     1     -12.044  14.260  67.185  1.00  0.00     0.098 C 
ATOM     16  O   UNL     1     -10.890  14.681  69.259  1.00  0.00    -0.275 OA
ENDBRANCH   3  11
ENDBRANCH   1   2
BRANCH   1  17
ATOM     17  C   UNL     1      -5.959  19.610  67.703  1.00  0.00     0.102 C 
BRANCH  17  18
ATOM     18  C   UNL     1      -5.381  20.951  68.249  1.00  0.00     0.011 C 
ATOM     19  C   UNL     1      -5.188  20.949  69.789  1.00  0.00     0.004 C 
ENDBRANCH  17  18
BRANCH  17  20
ATOM     20  C   UNL     1      -6.634  19.824  66.359  1.00  0.00     0.308 C 
ATOM     21  O   UNL     1      -6.551  18.994  65.468  1.00  0.00    -0.251 OA
BRANCH  20  22
ATOM     22  O   UNL     1      -7.344  20.933  66.139  1.00  0.00    -0.480 OA
ATOM     23  H   UNL     1      -8.216  21.006  66.472  1.00  0.00     0.295 HD
ENDBRANCH  20  22
ENDBRANCH  17  20
ENDBRANCH   1  17
TORSDOF 6

ENDMDL
MODEL 8
REMARK VINA RESULT:    -4.471      5.533      8.682
REMARK INTER + INTRA:          -6.403
REMARK INTER:                  -6.031
REMARK INTRA:                  -0.372
REMARK UNBOUND:                -0.494
REMARK SMILES CC[C@@H](Cc1c(I)cc(I)c(N2CCCC2=O)c1I)C(=O)O
REMARK SMILES IDX 4 1 5 2 11 3 9 4 18 5 8 6 10 7 19 8 6 9 7 10 12 11 13 12
REMARK SMILES IDX 16 13 14 14 15 15 17 16 3 17 2 18 1 19 20 20 21 21 22 22
REMARK H PARENT 22 23
REMARK INDEX MAP 6 1 9 2 7 3 12 4 10 5 14 6 21 7 20 8 13 9 22 10 1 11 2 12
REMARK INDEX MAP 8 13 3 14 4 15 17 16 5 17 11 18 16 19 15 20 19 21 18 22 38 23
REMARK Flexibility Score: inf
ROOT
ATOM      1  C   UNL     1     -10.229  14.849  66.943  1.00  0.00     0.052 C 
ENDROOT
BRANCH   1   2
ATOM      2  C   UNL     1      -8.841  15.459  67.215  1.00  0.00    -0.019 A 
ATOM      3  C   UNL     1      -7.301  17.452  67.454  1.00  0.00     0.063 A 
ATOM      4  C   UNL     1      -6.244  16.621  67.853  1.00  0.00     0.037 A 
ATOM      5  C   UNL     1      -8.631  16.878  67.148  1.00  0.00     0.040 A 
ATOM      6  C   UNL     1      -6.444  15.156  67.899  1.00  0.00     0.031 A 
ATOM      7  I   UNL     1      -4.423  17.418  68.356  1.00  0.00    -0.042 I 
ATOM      8  I   UNL     1     -10.142  18.172  66.634  1.00  0.00    -0.042 I 
ATOM      9  C   UNL     1      -7.683  14.588  67.562  1.00  0.00     0.019 A 
ATOM     10  I   UNL     1      -7.832  12.536  67.556  1.00  0.00    -0.043 I 
BRANCH   3  11
ATOM     11  N   UNL     1      -7.098  18.849  67.329  1.00  0.00    -0.269 N 
ATOM     12  C   UNL     1      -7.189  19.733  68.476  1.00  0.00     0.114 C 
ATOM     13  C   UNL     1      -6.770  19.442  66.172  1.00  0.00     0.220 C 
ATOM     14  C   UNL     1      -6.337  20.912  67.945  1.00  0.00     0.029 C 
ATOM     15  C   UNL     1      -6.595  20.911  66.417  1.00  0.00     0.098 C 
ATOM     16  O   UNL     1      -6.630  18.900  65.089  1.00  0.00    -0.275 OA
ENDBRANCH   3  11
ENDBRANCH   1   2
BRANCH   1  17
ATOM     17  C   UNL     1     -11.114  14.735  68.224  1.00  0.00     0.102 C 
BRANCH  17  18
ATOM     18  C   UNL     1     -10.362  15.340  69.448  1.00  0.00     0.011 C 
ATOM     19  C   UNL     1     -11.296  16.116  70.414  1.00  0.00     0.004 C 
ENDBRANCH  17  18
BRANCH  17  20
ATOM     20  C   UNL     1     -11.501  13.290  68.492  1.00  0.00     0.308 C 
ATOM     21  O   UNL     1     -12.067  12.617  67.645  1.00  0.00    -0.251 OA
BRANCH  20  22
ATOM     22  O   UNL     1     -11.213  12.730  69.669  1.00  0.00    -0.480 OA
ATOM     23  H   UNL     1     -10.427  12.966  70.121  1.00  0.00     0.295 HD
ENDBRANCH  20  22
ENDBRANCH  17  20
ENDBRANCH   1  17
TORSDOF 6

ENDMDL
MODEL 9
REMARK VINA RESULT:    -4.407      3.985      5.607
REMARK INTER + INTRA:          -6.318
REMARK INTER:                  -5.718
REMARK INTRA:                  -0.600
REMARK UNBOUND:                -0.494
REMARK SMILES CC[C@@H](Cc1c(I)cc(I)c(N2CCCC2=O)c1I)C(=O)O
REMARK SMILES IDX 4 1 5 2 11 3 9 4 18 5 8 6 10 7 19 8 6 9 7 10 12 11 13 12
REMARK SMILES IDX 16 13 14 14 15 15 17 16 3 17 2 18 1 19 20 20 21 21 22 22
REMARK H PARENT 22 23
REMARK INDEX MAP 6 1 9 2 7 3 12 4 10 5 14 6 21 7 20 8 13 9 22 10 1 11 2 12
REMARK INDEX MAP 8 13 3 14 4 15 17 16 5 17 11 18 16 19 15 20 19 21 18 22 38 23
REMARK Flexibility Score: inf
ROOT
ATOM      1  C   UNL     1      -8.728  17.016  68.789  1.00  0.00     0.052 C 
ENDROOT
BRANCH   1   2
ATOM      2  C   UNL     1      -8.206  15.619  68.403  1.00  0.00    -0.019 A 
ATOM      3  C   UNL     1      -8.593  13.228  67.671  1.00  0.00     0.063 A 
ATOM      4  C   UNL     1      -7.212  13.013  67.552  1.00  0.00     0.037 A 
ATOM      5  C   UNL     1      -9.112  14.553  68.080  1.00  0.00     0.040 A 
ATOM      6  C   UNL     1      -6.271  14.097  67.907  1.00  0.00     0.031 A 
ATOM      7  I   UNL     1      -6.490  11.206  66.905  1.00  0.00    -0.042 I 
ATOM      8  I   UNL     1     -11.150  14.802  68.167  1.00  0.00    -0.042 I 
ATOM      9  C   UNL     1      -6.742  15.344  68.348  1.00  0.00     0.019 A 
ATOM     10  I   UNL     1      -5.354  16.751  68.919  1.00  0.00    -0.043 I 
BRANCH   3  11
ATOM     11  N   UNL     1      -9.501  12.173  67.410  1.00  0.00    -0.269 N 
ATOM     12  C   UNL     1      -9.910  11.250  68.452  1.00  0.00     0.114 C 
ATOM     13  C   UNL     1     -10.074  11.977  66.213  1.00  0.00     0.220 C 
ATOM     14  C   UNL     1     -11.247  10.766  67.840  1.00  0.00     0.029 C 
ATOM     15  C   UNL     1     -11.003  10.803  66.310  1.00  0.00     0.098 C 
ATOM     16  O   UNL     1      -9.888  12.630  65.200  1.00  0.00    -0.275 OA
ENDBRANCH   3  11
ENDBRANCH   1   2
BRANCH   1  17
ATOM     17  C   UNL     1      -8.641  18.050  67.624  1.00  0.00     0.102 C 
BRANCH  17  18
ATOM     18  C   UNL     1      -8.075  19.403  68.152  1.00  0.00     0.011 C 
ATOM     19  C   UNL     1      -7.460  20.285  67.032  1.00  0.00     0.004 C 
ENDBRANCH  17  18
BRANCH  17  20
ATOM     20  C   UNL     1      -9.999  18.253  66.974  1.00  0.00     0.308 C 
ATOM     21  O   UNL     1     -10.941  18.714  67.601  1.00  0.00    -0.251 OA
BRANCH  20  22
ATOM     22  O   UNL     1     -10.178  17.936  65.689  1.00  0.00    -0.480 OA
ATOM     23  H   UNL     1     -10.086  18.592  65.027  1.00  0.00     0.295 HD
ENDBRANCH  20  22
ENDBRANCH  17  20
ENDBRANCH   1  17
TORSDOF 6

ENDMDL
MODEL 10
REMARK VINA RESULT:    -4.224      2.711      3.345
REMARK INTER + INTRA:          -6.077
REMARK INTER:                  -5.583
REMARK INTRA:                  -0.494
REMARK UNBOUND:                -0.494
REMARK SMILES CC[C@@H](Cc1c(I)cc(I)c(N2CCCC2=O)c1I)C(=O)O
REMARK SMILES IDX 4 1 5 2 11 3 9 4 18 5 8 6 10 7 19 8 6 9 7 10 12 11 13 12
REMARK SMILES IDX 16 13 14 14 15 15 17 16 3 17 2 18 1 19 20 20 21 21 22 22
REMARK H PARENT 22 23
REMARK INDEX MAP 6 1 9 2 7 3 12 4 10 5 14 6 21 7 20 8 13 9 22 10 1 11 2 12
REMARK INDEX MAP 8 13 3 14 4 15 17 16 5 17 11 18 16 19 15 20 19 21 18 22 38 23
REMARK Flexibility Score: inf
ROOT
ATOM      1  C   UNL     1     -11.838  12.027  66.514  1.00  0.00     0.052 C 
ENDROOT
BRANCH   1   2
ATOM      2  C   UNL     1     -10.719  11.024  66.852  1.00  0.00    -0.019 A 
ATOM      3  C   UNL     1      -8.741   9.595  66.183  1.00  0.00     0.063 A 
ATOM      4  C   UNL     1      -8.525   9.223  67.517  1.00  0.00     0.037 A 
ATOM      5  C   UNL     1      -9.838  10.527  65.833  1.00  0.00     0.040 A 
ATOM      6  C   UNL     1      -9.443   9.709  68.570  1.00  0.00     0.031 A 
ATOM      7  I   UNL     1      -6.958   7.999  68.017  1.00  0.00    -0.042 I 
ATOM      8  I   UNL     1     -10.046  11.072  63.863  1.00  0.00    -0.042 I 
ATOM      9  C   UNL     1     -10.521  10.551  68.252  1.00  0.00     0.019 A 
ATOM     10  I   UNL     1     -11.803  11.088  69.768  1.00  0.00    -0.043 I 
BRANCH   3  11
ATOM     11  N   UNL     1      -7.916   9.072  65.157  1.00  0.00    -0.269 N 
ATOM     12  C   UNL     1      -8.263   7.850  64.455  1.00  0.00     0.114 C 
ATOM     13  C   UNL     1      -6.797   9.678  64.734  1.00  0.00     0.220 C 
ATOM     14  C   UNL     1      -7.452   8.074  63.156  1.00  0.00     0.029 C 
ATOM     15  C   UNL     1      -6.205   8.871  63.617  1.00  0.00     0.098 C 
ATOM     16  O   UNL     1      -6.320  10.713  65.168  1.00  0.00    -0.275 OA
ENDBRANCH   3  11
ENDBRANCH   1   2
BRANCH   1  17
ATOM     17  C   UNL     1     -11.362  13.513  66.542  1.00  0.00     0.102 C 
BRANCH  17  18
ATOM     18  C   UNL     1     -11.877  14.214  67.836  1.00  0.00     0.011 C 
ATOM     19  C   UNL     1     -11.056  15.477  68.212  1.00  0.00     0.004 C 
ENDBRANCH  17  18
BRANCH  17  20
ATOM     20  C   UNL     1     -11.832  14.259  65.304  1.00  0.00     0.308 C 
ATOM     21  O   UNL     1     -11.149  15.130  64.790  1.00  0.00    -0.251 OA
BRANCH  20  22
ATOM     22  O   UNL     1     -13.010  13.957  64.751  1.00  0.00    -0.480 OA
ATOM     23  H   UNL     1     -13.705  13.622  65.282  1.00  0.00     0.295 HD
ENDBRANCH  20  22
ENDBRANCH  17  20
ENDBRANCH   1  17
TORSDOF 6

ENDMDL
