MOL013443
  PyMOL2.4          3D                             0

 22 23  0  0  0  0  0  0  0  0999 V2000
   -2.5900   -1.4629   -0.1026 N   0  0  0  0  0  0  0  0  0  0  0  0
   -3.3693   -0.7107   -1.0689 C   0  0  0  0  0  0  0  0  0  0  0  0
   -3.6939   -1.8517   -2.0641 C   0  0  0  0  0  0  0  0  0  0  0  0
   -3.7985   -3.1157   -1.1733 C   0  0  0  0  0  0  0  0  0  0  0  0
    2.5616    1.1534   -0.1412 C   0  0  0  0  0  0  0  0  0  0  0  0
    2.2039   -0.0142    0.8312 C   0  0  0  0  0  0  0  0  0  0  0  0
   -1.6635   -0.8246    0.7566 C   0  0  0  0  0  0  0  0  0  0  0  0
   -2.7826   -2.7899   -0.1185 C   0  0  0  0  0  0  0  0  0  0  0  0
    0.7085   -0.0624    1.1991 C   0  0  0  0  0  0  0  0  0  0  0  0
   -0.2358   -0.7532    0.3670 C   0  0  0  0  0  0  0  0  0  0  0  0
    4.0672    1.5314    0.0103 C   0  0  0  0  0  0  0  0  0  0  0  0
   -2.0979   -0.2574    1.9633 C   0  0  0  0  0  0  0  0  0  0  0  0
    0.2095    0.6042    2.4348 C   0  0  0  0  0  0  0  0  0  0  0  0
   -1.1367    0.4791    2.8135 C   0  0  0  0  0  0  0  0  0  0  0  0
    1.6771    2.3620    0.1099 C   0  0  0  0  0  0  0  0  0  0  0  0
    4.5401    2.5778   -1.0344 C   0  0  0  0  0  0  0  0  0  0  0  0
   -2.2358   -3.6155    0.5926 O   0  0  0  0  0  0  0  0  0  0  0  0
    0.4378    2.3963   -0.3865 O   0  0  0  0  0  0  0  0  0  0  0  0
    2.0771    3.3185    0.7540 O   0  0  0  0  0  0  0  0  0  0  0  0
    0.3298   -1.6669   -1.3840 I   0  0  0  0  0  0  0  0  0  0  0  0
   -4.0565   -0.4253    2.5479 I   0  0  0  0  0  0  0  0  0  0  0  0
    1.4435    1.7347    3.6304 I   0  0  0  0  0  0  0  0  0  0  0  0
  1  2  1  0  0  0  0
  1  8  1  0  0  0  0
  2  3  1  0  0  0  0
  3  4  1  0  0  0  0
  5 11  1  0  0  0  0
  5 15  1  0  0  0  0
  5  6  1  0  0  0  0
  1  7  1  0  0  0  0
  7 12  2  0  0  0  0
  4  8  1  0  0  0  0
  8 17  2  0  0  0  0
  6  9  1  0  0  0  0
  9 10  2  0  0  0  0
  9 13  1  0  0  0  0
  7 10  1  0  0  0  0
 10 20  1  0  0  0  0
 11 16  1  0  0  0  0
 12 14  1  0  0  0  0
 12 21  1  0  0  0  0
 13 14  2  0  0  0  0
 13 22  1  0  0  0  0
 15 18  1  0  0  0  0
 15 19  2  0  0  0  0
M  END
$$$$
