MODEL 1
REMARK VINA RESULT:    -6.940      0.000      0.000
REMARK INTER + INTRA:         -15.236
REMARK INTER:                 -12.721
REMARK INTRA:                  -2.516
REMARK UNBOUND:                -3.022
REMARK SMILES CC(C)C[C@H](NC(=O)OCc1ccccc1)C(=O)N[C@@H](C[C@H]1CCNC1=O)[C@H](O)S(=O)(=O)O
REMARK SMILES IDX 18 1 19 2 17 3 20 5 28 6 30 7 31 8 32 9 33 10 29 12 21 14
REMARK SMILES IDX 22 15 23 16 26 17 24 18 27 19 25 20 5 22 6 23 7 24 8 26 9 27
REMARK SMILES IDX 10 28 11 29 12 30 16 31 13 32 15 33 14 34 4 35 2 36 1 37
REMARK SMILES IDX 3 38
REMARK H PARENT 19 4 33 11 29 13 25 21 6 25
REMARK INDEX MAP 5 1 10 2 21 3 36 4 15 5 18 6 1 7 6 8 7 9 4 10 35 11 2 12
REMARK INDEX MAP 34 13 14 14 13 15 16 16 19 17 17 18 3 19 11 20 37 21 20 22
REMARK INDEX MAP 12 23 26 24 38 25 9 26 8 27 27 28 28 29 29 30 30 31 31 32
REMARK INDEX MAP 32 33 33 34 22 35 23 36 24 37 25 38
REMARK Flexibility Score: inf
ROOT
ATOM      1  O   UNL     1     -11.867  16.548  68.658  1.00  0.00    -0.274 OA
ATOM      2  N   UNL     1     -11.147  14.997  67.087  1.00  0.00    -0.307 N 
ATOM      3  C   UNL     1     -11.660  15.386  68.317  1.00  0.00     0.234 C 
ATOM      4  H   UNL     1     -11.019  14.035  66.917  1.00  0.00     0.149 HD
ENDROOT
BRANCH   2   5
ATOM      5  C   UNL     1     -10.791  15.933  66.045  1.00  0.00     0.127 C 
BRANCH   5   6
ATOM      6  C   UNL     1     -11.131  15.372  64.651  1.00  0.00     0.306 C 
BRANCH   6   7
ATOM      7  S   UNL     1     -12.130  13.882  64.738  1.00  0.00     0.109 S 
ATOM      8  O   UNL     1     -13.411  14.199  65.335  1.00  0.00    -0.145 OA
ATOM      9  O   UNL     1     -11.304  12.797  65.228  1.00  0.00    -0.145 OA
BRANCH   7  10
ATOM     10  O   UNL     1     -12.340  13.688  63.133  1.00  0.00    -0.252 OA
ATOM     11  H   UNL     1     -13.253  13.411  62.958  1.00  0.00     0.245 HD
ENDBRANCH   7  10
ENDBRANCH   6   7
BRANCH   6  12
ATOM     12  O   UNL     1     -11.718  16.375  63.828  1.00  0.00    -0.368 OA
ATOM     13  H   UNL     1     -11.282  16.380  62.962  1.00  0.00     0.212 HD
ENDBRANCH   6  12
ENDBRANCH   5   6
BRANCH   5  14
ATOM     14  C   UNL     1      -9.301  16.303  66.146  1.00  0.00     0.039 C 
BRANCH  14  15
ATOM     15  C   UNL     1      -9.081  17.710  66.665  1.00  0.00     0.078 C 
ATOM     16  C   UNL     1     -10.260  18.648  66.395  1.00  0.00     0.031 C 
ATOM     17  C   UNL     1      -8.956  17.770  68.177  1.00  0.00     0.216 C 
ATOM     18  C   UNL     1     -10.133  19.690  67.489  1.00  0.00     0.105 C 
ATOM     19  O   UNL     1      -8.383  16.956  68.884  1.00  0.00    -0.276 OA
ATOM     20  N   UNL     1      -9.574  18.949  68.586  1.00  0.00    -0.315 N 
ATOM     21  H   UNL     1      -9.622  19.244  69.524  1.00  0.00     0.149 HD
ENDBRANCH  14  15
ENDBRANCH   5  14
ENDBRANCH   2   5
BRANCH   3  22
ATOM     22  C   UNL     1     -11.892  14.196  69.242  1.00  0.00     0.162 C 
BRANCH  22  23
ATOM     23  N   UNL     1     -11.070  13.116  68.759  1.00  0.00    -0.270 N 
ATOM     24  C   UNL     1     -11.408  11.781  68.871  1.00  0.00     0.401 C 
ATOM     25  H   UNL     1     -10.218  13.343  68.320  1.00  0.00     0.153 HD
ATOM     26  O   UNL     1     -12.430  11.343  69.388  1.00  0.00    -0.226 OA
BRANCH  24  27
ATOM     27  O   UNL     1     -10.426  11.007  68.317  1.00  0.00    -0.446 OA
BRANCH  27  28
ATOM     28  C   UNL     1     -10.869  10.008  67.392  1.00  0.00     0.269 C 
BRANCH  28  29
ATOM     29  C   UNL     1      -9.716   9.109  67.052  1.00  0.00    -0.010 A 
ATOM     30  C   UNL     1      -8.411   9.599  67.101  1.00  0.00     0.007 A 
ATOM     31  C   UNL     1      -9.949   7.782  66.690  1.00  0.00     0.007 A 
ATOM     32  C   UNL     1      -7.339   8.764  66.786  1.00  0.00     0.000 A 
ATOM     33  C   UNL     1      -8.878   6.946  66.376  1.00  0.00     0.000 A 
ATOM     34  C   UNL     1      -7.573   7.437  66.423  1.00  0.00     0.000 A 
ENDBRANCH  28  29
ENDBRANCH  27  28
ENDBRANCH  24  27
ENDBRANCH  22  23
BRANCH  22  35
ATOM     35  C   UNL     1     -11.559  14.575  70.690  1.00  0.00     0.035 C 
BRANCH  35  36
ATOM     36  C   UNL     1     -12.768  15.023  71.536  1.00  0.00    -0.015 C 
ATOM     37  C   UNL     1     -13.638  13.846  71.977  1.00  0.00     0.007 C 
ATOM     38  C   UNL     1     -12.281  15.794  72.766  1.00  0.00     0.007 C 
ENDBRANCH  35  36
ENDBRANCH  22  35
ENDBRANCH   3  22
TORSDOF 14

ENDMDL
MODEL 2
REMARK VINA RESULT:    -6.447      1.759      2.167
REMARK INTER + INTRA:         -14.367
REMARK INTER:                 -11.500
REMARK INTRA:                  -2.867
REMARK UNBOUND:                -3.022
REMARK SMILES CC(C)C[C@H](NC(=O)OCc1ccccc1)C(=O)N[C@@H](C[C@H]1CCNC1=O)[C@H](O)S(=O)(=O)O
REMARK SMILES IDX 18 1 19 2 17 3 20 5 28 6 30 7 31 8 32 9 33 10 29 12 21 14
REMARK SMILES IDX 22 15 23 16 26 17 24 18 27 19 25 20 5 22 6 23 7 24 8 26 9 27
REMARK SMILES IDX 10 28 11 29 12 30 16 31 13 32 15 33 14 34 4 35 2 36 1 37
REMARK SMILES IDX 3 38
REMARK H PARENT 19 4 33 11 29 13 25 21 6 25
REMARK INDEX MAP 5 1 10 2 21 3 36 4 15 5 18 6 1 7 6 8 7 9 4 10 35 11 2 12
REMARK INDEX MAP 34 13 14 14 13 15 16 16 19 17 17 18 3 19 11 20 37 21 20 22
REMARK INDEX MAP 12 23 26 24 38 25 9 26 8 27 27 28 28 29 29 30 30 31 31 32
REMARK INDEX MAP 32 33 33 34 22 35 23 36 24 37 25 38
REMARK Flexibility Score: inf
ROOT
ATOM      1  O   UNL     1     -12.024  16.008  69.125  1.00  0.00    -0.274 OA
ATOM      2  N   UNL     1     -11.138  14.086  68.169  1.00  0.00    -0.307 N 
ATOM      3  C   UNL     1     -11.889  14.787  69.104  1.00  0.00     0.234 C 
ATOM      4  H   UNL     1     -11.097  13.105  68.245  1.00  0.00     0.149 HD
ENDROOT
BRANCH   2   5
ATOM      5  C   UNL     1     -10.417  14.724  67.093  1.00  0.00     0.127 C 
BRANCH   5   6
ATOM      6  C   UNL     1     -10.485  13.887  65.801  1.00  0.00     0.306 C 
BRANCH   6   7
ATOM      7  S   UNL     1     -12.065  13.056  65.608  1.00  0.00     0.109 S 
ATOM      8  O   UNL     1     -13.109  14.045  65.438  1.00  0.00    -0.145 OA
ATOM      9  O   UNL     1     -12.161  12.004  66.600  1.00  0.00    -0.145 OA
BRANCH   7  10
ATOM     10  O   UNL     1     -11.757  12.373  64.160  1.00  0.00    -0.252 OA
ATOM     11  H   UNL     1     -11.758  11.407  64.251  1.00  0.00     0.245 HD
ENDBRANCH   7  10
ENDBRANCH   6   7
BRANCH   6  12
ATOM     12  O   UNL     1     -10.141  14.674  64.665  1.00  0.00    -0.368 OA
ATOM     13  H   UNL     1      -9.328  14.328  64.265  1.00  0.00     0.212 HD
ENDBRANCH   6  12
ENDBRANCH   5   6
BRANCH   5  14
ATOM     14  C   UNL     1      -8.959  14.985  67.508  1.00  0.00     0.039 C 
BRANCH  14  15
ATOM     15  C   UNL     1      -8.714  16.423  67.920  1.00  0.00     0.078 C 
ATOM     16  C   UNL     1      -7.484  16.597  68.814  1.00  0.00     0.031 C 
ATOM     17  C   UNL     1      -8.394  17.329  66.745  1.00  0.00     0.216 C 
ATOM     18  C   UNL     1      -7.070  18.034  68.560  1.00  0.00     0.105 C 
ATOM     19  O   UNL     1      -8.907  17.280  65.638  1.00  0.00    -0.276 OA
ATOM     20  N   UNL     1      -7.446  18.247  67.189  1.00  0.00    -0.315 N 
ATOM     21  H   UNL     1      -7.074  18.964  66.628  1.00  0.00     0.149 HD
ENDBRANCH  14  15
ENDBRANCH   5  14
ENDBRANCH   2   5
BRANCH   3  22
ATOM     22  C   UNL     1     -12.495  13.866  70.157  1.00  0.00     0.162 C 
BRANCH  22  23
ATOM     23  N   UNL     1     -12.079  12.525  69.839  1.00  0.00    -0.270 N 
ATOM     24  C   UNL     1     -12.433  11.412  70.577  1.00  0.00     0.401 C 
ATOM     25  H   UNL     1     -11.509  12.393  69.046  1.00  0.00     0.153 HD
ATOM     26  O   UNL     1     -13.135  11.416  71.584  1.00  0.00    -0.226 OA
BRANCH  24  27
ATOM     27  O   UNL     1     -11.884  10.292  70.019  1.00  0.00    -0.446 OA
BRANCH  27  28
ATOM     28  C   UNL     1     -10.453  10.255  69.974  1.00  0.00     0.269 C 
BRANCH  28  29
ATOM     29  C   UNL     1     -10.011  10.128  68.546  1.00  0.00    -0.010 A 
ATOM     30  C   UNL     1      -9.079  11.024  68.021  1.00  0.00     0.007 A 
ATOM     31  C   UNL     1     -10.530   9.112  67.743  1.00  0.00     0.007 A 
ATOM     32  C   UNL     1      -8.668  10.906  66.694  1.00  0.00     0.000 A 
ATOM     33  C   UNL     1     -10.118   8.994  66.415  1.00  0.00     0.000 A 
ATOM     34  C   UNL     1      -9.188   9.891  65.891  1.00  0.00     0.000 A 
ENDBRANCH  28  29
ENDBRANCH  27  28
ENDBRANCH  24  27
ENDBRANCH  22  23
BRANCH  22  35
ATOM     35  C   UNL     1     -12.047  14.295  71.560  1.00  0.00     0.035 C 
BRANCH  35  36
ATOM     36  C   UNL     1     -13.196  14.658  72.523  1.00  0.00    -0.015 C 
ATOM     37  C   UNL     1     -12.855  15.856  73.410  1.00  0.00     0.007 C 
ATOM     38  C   UNL     1     -14.467  14.953  71.724  1.00  0.00     0.007 C 
ENDBRANCH  35  36
ENDBRANCH  22  35
ENDBRANCH   3  22
TORSDOF 14

ENDMDL
MODEL 3
REMARK VINA RESULT:    -6.345      2.844      3.445
REMARK INTER + INTRA:         -14.189
REMARK INTER:                 -11.975
REMARK INTRA:                  -2.214
REMARK UNBOUND:                -3.022
REMARK SMILES CC(C)C[C@H](NC(=O)OCc1ccccc1)C(=O)N[C@@H](C[C@H]1CCNC1=O)[C@H](O)S(=O)(=O)O
REMARK SMILES IDX 18 1 19 2 17 3 20 5 28 6 30 7 31 8 32 9 33 10 29 12 21 14
REMARK SMILES IDX 22 15 23 16 26 17 24 18 27 19 25 20 5 22 6 23 7 24 8 26 9 27
REMARK SMILES IDX 10 28 11 29 12 30 16 31 13 32 15 33 14 34 4 35 2 36 1 37
REMARK SMILES IDX 3 38
REMARK H PARENT 19 4 33 11 29 13 25 21 6 25
REMARK INDEX MAP 5 1 10 2 21 3 36 4 15 5 18 6 1 7 6 8 7 9 4 10 35 11 2 12
REMARK INDEX MAP 34 13 14 14 13 15 16 16 19 17 17 18 3 19 11 20 37 21 20 22
REMARK INDEX MAP 12 23 26 24 38 25 9 26 8 27 27 28 28 29 29 30 30 31 31 32
REMARK INDEX MAP 32 33 33 34 22 35 23 36 24 37 25 38
REMARK Flexibility Score: inf
ROOT
ATOM      1  O   UNL     1     -12.103  16.139  69.238  1.00  0.00    -0.274 OA
ATOM      2  N   UNL     1     -11.119  14.218  68.380  1.00  0.00    -0.307 N 
ATOM      3  C   UNL     1     -11.872  14.933  69.302  1.00  0.00     0.234 C 
ATOM      4  H   UNL     1     -10.995  13.252  68.528  1.00  0.00     0.149 HD
ENDROOT
BRANCH   2   5
ATOM      5  C   UNL     1     -10.509  14.820  67.217  1.00  0.00     0.127 C 
BRANCH   5   6
ATOM      6  C   UNL     1     -10.454  13.828  66.039  1.00  0.00     0.306 C 
BRANCH   6   7
ATOM      7  S   UNL     1     -10.693  12.128  66.565  1.00  0.00     0.109 S 
ATOM      8  O   UNL     1     -12.072  11.940  66.966  1.00  0.00    -0.145 OA
ATOM      9  O   UNL     1      -9.588  11.746  67.422  1.00  0.00    -0.145 OA
BRANCH   7  10
ATOM     10  O   UNL     1     -10.478  11.435  65.105  1.00  0.00    -0.252 OA
ATOM     11  H   UNL     1     -11.300  11.498  64.593  1.00  0.00     0.245 HD
ENDBRANCH   7  10
ENDBRANCH   6   7
BRANCH   6  12
ATOM     12  O   UNL     1     -11.357  14.212  65.007  1.00  0.00    -0.368 OA
ATOM     13  H   UNL     1     -10.862  14.609  64.274  1.00  0.00     0.212 HD
ENDBRANCH   6  12
ENDBRANCH   5   6
BRANCH   5  14
ATOM     14  C   UNL     1      -9.106  15.349  67.563  1.00  0.00     0.039 C 
BRANCH  14  15
ATOM     15  C   UNL     1      -9.087  16.845  67.806  1.00  0.00     0.078 C 
ATOM     16  C   UNL     1      -7.795  17.336  68.462  1.00  0.00     0.031 C 
ATOM     17  C   UNL     1      -9.127  17.653  66.521  1.00  0.00     0.216 C 
ATOM     18  C   UNL     1      -7.710  18.785  68.022  1.00  0.00     0.105 C 
ATOM     19  O   UNL     1      -9.781  17.387  65.524  1.00  0.00    -0.276 OA
ATOM     20  N   UNL     1      -8.320  18.770  66.721  1.00  0.00    -0.315 N 
ATOM     21  H   UNL     1      -8.182  19.472  66.047  1.00  0.00     0.149 HD
ENDBRANCH  14  15
ENDBRANCH   5  14
ENDBRANCH   2   5
BRANCH   3  22
ATOM     22  C   UNL     1     -12.346  14.057  70.457  1.00  0.00     0.162 C 
BRANCH  22  23
ATOM     23  N   UNL     1     -11.821  12.735  70.230  1.00  0.00    -0.270 N 
ATOM     24  C   UNL     1     -12.311  11.597  70.839  1.00  0.00     0.401 C 
ATOM     25  H   UNL     1     -11.068  12.637  69.602  1.00  0.00     0.153 HD
ATOM     26  O   UNL     1     -13.239  11.558  71.640  1.00  0.00    -0.226 OA
BRANCH  24  27
ATOM     27  O   UNL     1     -11.605  10.505  70.417  1.00  0.00    -0.446 OA
BRANCH  27  28
ATOM     28  C   UNL     1     -12.045   9.242  70.928  1.00  0.00     0.269 C 
BRANCH  28  29
ATOM     29  C   UNL     1     -10.955   8.646  71.770  1.00  0.00    -0.010 A 
ATOM     30  C   UNL     1     -11.276   7.813  72.841  1.00  0.00     0.007 A 
ATOM     31  C   UNL     1      -9.619   8.925  71.480  1.00  0.00     0.007 A 
ATOM     32  C   UNL     1     -10.263   7.259  73.623  1.00  0.00     0.000 A 
ATOM     33  C   UNL     1      -8.605   8.371  72.262  1.00  0.00     0.000 A 
ATOM     34  C   UNL     1      -8.927   7.539  73.334  1.00  0.00     0.000 A 
ENDBRANCH  28  29
ENDBRANCH  27  28
ENDBRANCH  24  27
ENDBRANCH  22  23
BRANCH  22  35
ATOM     35  C   UNL     1     -11.881  14.644  71.795  1.00  0.00     0.035 C 
BRANCH  35  36
ATOM     36  C   UNL     1     -13.007  14.889  72.820  1.00  0.00    -0.015 C 
ATOM     37  C   UNL     1     -12.692  16.050  73.765  1.00  0.00     0.007 C 
ATOM     38  C   UNL     1     -14.322  15.164  72.087  1.00  0.00     0.007 C 
ENDBRANCH  35  36
ENDBRANCH  22  35
ENDBRANCH   3  22
TORSDOF 14

ENDMDL
MODEL 4
REMARK VINA RESULT:    -6.328      2.939      5.658
REMARK INTER + INTRA:         -14.158
REMARK INTER:                 -11.977
REMARK INTRA:                  -2.181
REMARK UNBOUND:                -3.022
REMARK SMILES CC(C)C[C@H](NC(=O)OCc1ccccc1)C(=O)N[C@@H](C[C@H]1CCNC1=O)[C@H](O)S(=O)(=O)O
REMARK SMILES IDX 18 1 19 2 17 3 20 5 28 6 30 7 31 8 32 9 33 10 29 12 21 14
REMARK SMILES IDX 22 15 23 16 26 17 24 18 27 19 25 20 5 22 6 23 7 24 8 26 9 27
REMARK SMILES IDX 10 28 11 29 12 30 16 31 13 32 15 33 14 34 4 35 2 36 1 37
REMARK SMILES IDX 3 38
REMARK H PARENT 19 4 33 11 29 13 25 21 6 25
REMARK INDEX MAP 5 1 10 2 21 3 36 4 15 5 18 6 1 7 6 8 7 9 4 10 35 11 2 12
REMARK INDEX MAP 34 13 14 14 13 15 16 16 19 17 17 18 3 19 11 20 37 21 20 22
REMARK INDEX MAP 12 23 26 24 38 25 9 26 8 27 27 28 28 29 29 30 30 31 31 32
REMARK INDEX MAP 32 33 33 34 22 35 23 36 24 37 25 38
REMARK Flexibility Score: inf
ROOT
ATOM      1  O   UNL     1     -12.177  10.898  68.396  1.00  0.00    -0.274 OA
ATOM      2  N   UNL     1     -10.783  12.105  66.984  1.00  0.00    -0.307 N 
ATOM      3  C   UNL     1     -11.237  10.949  67.605  1.00  0.00     0.234 C 
ATOM      4  H   UNL     1     -10.019  12.034  66.366  1.00  0.00     0.149 HD
ENDROOT
BRANCH   2   5
ATOM      5  C   UNL     1     -11.375  13.405  67.200  1.00  0.00     0.127 C 
BRANCH   5   6
ATOM      6  C   UNL     1     -11.034  14.372  66.050  1.00  0.00     0.306 C 
BRANCH   6   7
ATOM      7  S   UNL     1     -12.053  14.093  64.597  1.00  0.00     0.109 S 
ATOM      8  O   UNL     1     -12.307  15.358  63.940  1.00  0.00    -0.145 OA
ATOM      9  O   UNL     1     -13.125  13.184  64.949  1.00  0.00    -0.145 OA
BRANCH   7  10
ATOM     10  O   UNL     1     -10.944  13.271  63.729  1.00  0.00    -0.252 OA
ATOM     11  H   UNL     1     -10.900  13.638  62.831  1.00  0.00     0.245 HD
ENDBRANCH   7  10
ENDBRANCH   6   7
BRANCH   6  12
ATOM     12  O   UNL     1     -11.074  15.725  66.492  1.00  0.00    -0.368 OA
ATOM     13  H   UNL     1     -11.884  16.148  66.165  1.00  0.00     0.212 HD
ENDBRANCH   6  12
ENDBRANCH   5   6
BRANCH   5  14
ATOM     14  C   UNL     1     -10.927  13.978  68.556  1.00  0.00     0.039 C 
BRANCH  14  15
ATOM     15  C   UNL     1     -12.092  14.415  69.421  1.00  0.00     0.078 C 
ATOM     16  C   UNL     1     -12.269  13.560  70.678  1.00  0.00     0.031 C 
ATOM     17  C   UNL     1     -11.911  15.808  69.998  1.00  0.00     0.216 C 
ATOM     18  C   UNL     1     -12.972  14.497  71.641  1.00  0.00     0.105 C 
ATOM     19  O   UNL     1     -11.418  16.766  69.422  1.00  0.00    -0.276 OA
ATOM     20  N   UNL     1     -12.456  15.789  71.279  1.00  0.00    -0.315 N 
ATOM     21  H   UNL     1     -12.484  16.572  71.873  1.00  0.00     0.149 HD
ENDBRANCH  14  15
ENDBRANCH   5  14
ENDBRANCH   2   5
BRANCH   3  22
ATOM     22  C   UNL     1     -10.394   9.733  67.238  1.00  0.00     0.162 C 
BRANCH  22  23
ATOM     23  N   UNL     1     -10.994   8.591  67.879  1.00  0.00    -0.270 N 
ATOM     24  C   UNL     1     -10.274   7.594  68.508  1.00  0.00     0.401 C 
ATOM     25  H   UNL     1     -11.976   8.518  67.870  1.00  0.00     0.153 HD
ATOM     26  O   UNL     1      -9.052   7.546  68.603  1.00  0.00    -0.226 OA
BRANCH  24  27
ATOM     27  O   UNL     1     -11.128   6.656  69.017  1.00  0.00    -0.446 OA
BRANCH  27  28
ATOM     28  C   UNL     1     -11.105   6.497  70.440  1.00  0.00     0.269 C 
BRANCH  28  29
ATOM     29  C   UNL     1     -12.136   7.400  71.051  1.00  0.00    -0.010 A 
ATOM     30  C   UNL     1     -11.792   8.700  71.424  1.00  0.00     0.007 A 
ATOM     31  C   UNL     1     -13.438   6.940  71.245  1.00  0.00     0.007 A 
ATOM     32  C   UNL     1     -12.751   9.539  71.992  1.00  0.00     0.000 A 
ATOM     33  C   UNL     1     -14.397   7.779  71.813  1.00  0.00     0.000 A 
ATOM     34  C   UNL     1     -14.053   9.078  72.187  1.00  0.00     0.000 A 
ENDBRANCH  28  29
ENDBRANCH  27  28
ENDBRANCH  24  27
ENDBRANCH  22  23
BRANCH  22  35
ATOM     35  C   UNL     1     -10.326   9.574  65.715  1.00  0.00     0.035 C 
BRANCH  35  36
ATOM     36  C   UNL     1      -8.946   9.152  65.169  1.00  0.00    -0.015 C 
ATOM     37  C   UNL     1      -8.780   9.483  63.686  1.00  0.00     0.007 C 
ATOM     38  C   UNL     1      -7.840   9.835  65.977  1.00  0.00     0.007 C 
ENDBRANCH  35  36
ENDBRANCH  22  35
ENDBRANCH   3  22
TORSDOF 14

ENDMDL
MODEL 5
REMARK VINA RESULT:    -6.319      1.687      2.313
REMARK INTER + INTRA:         -14.143
REMARK INTER:                 -11.772
REMARK INTRA:                  -2.371
REMARK UNBOUND:                -3.022
REMARK SMILES CC(C)C[C@H](NC(=O)OCc1ccccc1)C(=O)N[C@@H](C[C@H]1CCNC1=O)[C@H](O)S(=O)(=O)O
REMARK SMILES IDX 18 1 19 2 17 3 20 5 28 6 30 7 31 8 32 9 33 10 29 12 21 14
REMARK SMILES IDX 22 15 23 16 26 17 24 18 27 19 25 20 5 22 6 23 7 24 8 26 9 27
REMARK SMILES IDX 10 28 11 29 12 30 16 31 13 32 15 33 14 34 4 35 2 36 1 37
REMARK SMILES IDX 3 38
REMARK H PARENT 19 4 33 11 29 13 25 21 6 25
REMARK INDEX MAP 5 1 10 2 21 3 36 4 15 5 18 6 1 7 6 8 7 9 4 10 35 11 2 12
REMARK INDEX MAP 34 13 14 14 13 15 16 16 19 17 17 18 3 19 11 20 37 21 20 22
REMARK INDEX MAP 12 23 26 24 38 25 9 26 8 27 27 28 28 29 29 30 30 31 31 32
REMARK INDEX MAP 32 33 33 34 22 35 23 36 24 37 25 38
REMARK Flexibility Score: inf
ROOT
ATOM      1  O   UNL     1     -12.050  16.387  68.755  1.00  0.00    -0.274 OA
ATOM      2  N   UNL     1     -11.212  14.500  67.691  1.00  0.00    -0.307 N 
ATOM      3  C   UNL     1     -11.807  15.182  68.744  1.00  0.00     0.234 C 
ATOM      4  H   UNL     1     -11.063  13.531  67.787  1.00  0.00     0.149 HD
ENDROOT
BRANCH   2   5
ATOM      5  C   UNL     1     -10.803  15.141  66.463  1.00  0.00     0.127 C 
BRANCH   5   6
ATOM      6  C   UNL     1     -11.098  14.248  65.242  1.00  0.00     0.306 C 
BRANCH   6   7
ATOM      7  S   UNL     1     -11.080  12.500  65.653  1.00  0.00     0.109 S 
ATOM      8  O   UNL     1     -10.946  11.724  64.437  1.00  0.00    -0.145 OA
ATOM      9  O   UNL     1     -12.129  12.238  66.617  1.00  0.00    -0.145 OA
BRANCH   7  10
ATOM     10  O   UNL     1      -9.648  12.492  66.433  1.00  0.00    -0.252 OA
ATOM     11  H   UNL     1      -9.231  13.365  66.352  1.00  0.00     0.245 HD
ENDBRANCH   7  10
ENDBRANCH   6   7
BRANCH   6  12
ATOM     12  O   UNL     1     -12.306  14.645  64.601  1.00  0.00    -0.368 OA
ATOM     13  H   UNL     1     -12.204  15.541  64.243  1.00  0.00     0.212 HD
ENDBRANCH   6  12
ENDBRANCH   5   6
BRANCH   5  14
ATOM     14  C   UNL     1      -9.312  15.516  66.528  1.00  0.00     0.039 C 
BRANCH  14  15
ATOM     15  C   UNL     1      -9.090  17.000  66.746  1.00  0.00     0.078 C 
ATOM     16  C   UNL     1     -10.266  17.863  66.281  1.00  0.00     0.031 C 
ATOM     17  C   UNL     1      -8.973  17.371  68.213  1.00  0.00     0.216 C 
ATOM     18  C   UNL     1     -10.141  19.109  67.137  1.00  0.00     0.105 C 
ATOM     19  O   UNL     1      -8.406  16.719  69.077  1.00  0.00    -0.276 OA
ATOM     20  N   UNL     1      -9.590  18.610  68.367  1.00  0.00    -0.315 N 
ATOM     21  H   UNL     1      -9.642  19.092  69.223  1.00  0.00     0.149 HD
ENDBRANCH  14  15
ENDBRANCH   5  14
ENDBRANCH   2   5
BRANCH   3  22
ATOM     22  C   UNL     1     -12.083  14.269  69.934  1.00  0.00     0.162 C 
BRANCH  22  23
ATOM     23  N   UNL     1     -11.443  13.009  69.659  1.00  0.00    -0.270 N 
ATOM     24  C   UNL     1     -11.815  11.812  70.240  1.00  0.00     0.401 C 
ATOM     25  H   UNL     1     -10.695  12.999  69.018  1.00  0.00     0.153 HD
ATOM     26  O   UNL     1     -12.723  11.664  71.052  1.00  0.00    -0.226 OA
BRANCH  24  27
ATOM     27  O   UNL     1     -11.019  10.803  69.775  1.00  0.00    -0.446 OA
BRANCH  27  28
ATOM     28  C   UNL     1     -10.784   9.723  70.686  1.00  0.00     0.269 C 
BRANCH  28  29
ATOM     29  C   UNL     1     -10.799   8.429  69.927  1.00  0.00    -0.010 A 
ATOM     30  C   UNL     1     -11.218   7.256  70.555  1.00  0.00     0.007 A 
ATOM     31  C   UNL     1     -10.396   8.399  68.592  1.00  0.00     0.007 A 
ATOM     32  C   UNL     1     -11.233   6.054  69.849  1.00  0.00     0.000 A 
ATOM     33  C   UNL     1     -10.411   7.196  67.886  1.00  0.00     0.000 A 
ATOM     34  C   UNL     1     -10.829   6.024  68.514  1.00  0.00     0.000 A 
ENDBRANCH  28  29
ENDBRANCH  27  28
ENDBRANCH  24  27
ENDBRANCH  22  23
BRANCH  22  35
ATOM     35  C   UNL     1     -11.569  14.912  71.228  1.00  0.00     0.035 C 
BRANCH  35  36
ATOM     36  C   UNL     1     -12.590  14.947  72.383  1.00  0.00    -0.015 C 
ATOM     37  C   UNL     1     -12.344  16.112  73.342  1.00  0.00     0.007 C 
ATOM     38  C   UNL     1     -14.009  15.036  71.817  1.00  0.00     0.007 C 
ENDBRANCH  35  36
ENDBRANCH  22  35
ENDBRANCH   3  22
TORSDOF 14

ENDMDL
MODEL 6
REMARK VINA RESULT:    -6.313      2.835      4.486
REMARK INTER + INTRA:         -14.132
REMARK INTER:                 -11.421
REMARK INTRA:                  -2.711
REMARK UNBOUND:                -3.022
REMARK SMILES CC(C)C[C@H](NC(=O)OCc1ccccc1)C(=O)N[C@@H](C[C@H]1CCNC1=O)[C@H](O)S(=O)(=O)O
REMARK SMILES IDX 18 1 19 2 17 3 20 5 28 6 30 7 31 8 32 9 33 10 29 12 21 14
REMARK SMILES IDX 22 15 23 16 26 17 24 18 27 19 25 20 5 22 6 23 7 24 8 26 9 27
REMARK SMILES IDX 10 28 11 29 12 30 16 31 13 32 15 33 14 34 4 35 2 36 1 37
REMARK SMILES IDX 3 38
REMARK H PARENT 19 4 33 11 29 13 25 21 6 25
REMARK INDEX MAP 5 1 10 2 21 3 36 4 15 5 18 6 1 7 6 8 7 9 4 10 35 11 2 12
REMARK INDEX MAP 34 13 14 14 13 15 16 16 19 17 17 18 3 19 11 20 37 21 20 22
REMARK INDEX MAP 12 23 26 24 38 25 9 26 8 27 27 28 28 29 29 30 30 31 31 32
REMARK INDEX MAP 32 33 33 34 22 35 23 36 24 37 25 38
REMARK Flexibility Score: inf
ROOT
ATOM      1  O   UNL     1      -9.516  15.172  69.970  1.00  0.00    -0.274 OA
ATOM      2  N   UNL     1     -10.035  16.499  68.136  1.00  0.00    -0.307 N 
ATOM      3  C   UNL     1     -10.334  15.623  69.172  1.00  0.00     0.234 C 
ATOM      4  H   UNL     1     -10.769  16.800  67.552  1.00  0.00     0.149 HD
ENDROOT
BRANCH   2   5
ATOM      5  C   UNL     1      -8.702  16.990  67.874  1.00  0.00     0.127 C 
BRANCH   5   6
ATOM      6  C   UNL     1      -8.734  18.434  67.340  1.00  0.00     0.306 C 
BRANCH   6   7
ATOM      7  S   UNL     1     -10.303  18.843  66.568  1.00  0.00     0.109 S 
ATOM      8  O   UNL     1     -11.289  19.106  67.597  1.00  0.00    -0.145 OA
ATOM      9  O   UNL     1     -10.551  17.905  65.492  1.00  0.00    -0.145 OA
BRANCH   7  10
ATOM     10  O   UNL     1      -9.842  20.265  65.917  1.00  0.00    -0.252 OA
ATOM     11  H   UNL     1     -10.457  20.963  66.195  1.00  0.00     0.245 HD
ENDBRANCH   7  10
ENDBRANCH   6   7
BRANCH   6  12
ATOM     12  O   UNL     1      -8.369  19.362  68.356  1.00  0.00    -0.368 OA
ATOM     13  H   UNL     1      -9.142  19.894  68.603  1.00  0.00     0.212 HD
ENDBRANCH   6  12
ENDBRANCH   5   6
BRANCH   5  14
ATOM     14  C   UNL     1      -7.971  16.054  66.897  1.00  0.00     0.039 C 
BRANCH  14  15
ATOM     15  C   UNL     1      -6.800  15.335  67.538  1.00  0.00     0.078 C 
ATOM     16  C   UNL     1      -6.391  15.928  68.889  1.00  0.00     0.031 C 
ATOM     17  C   UNL     1      -7.116  13.894  67.898  1.00  0.00     0.216 C 
ATOM     18  C   UNL     1      -5.736  14.758  69.597  1.00  0.00     0.105 C 
ATOM     19  O   UNL     1      -7.788  13.118  67.235  1.00  0.00    -0.276 OA
ATOM     20  N   UNL     1      -6.456  13.622  69.093  1.00  0.00    -0.315 N 
ATOM     21  H   UNL     1      -6.480  12.748  69.544  1.00  0.00     0.149 HD
ENDBRANCH  14  15
ENDBRANCH   5  14
ENDBRANCH   2   5
BRANCH   3  22
ATOM     22  C   UNL     1     -11.807  15.229  69.180  1.00  0.00     0.162 C 
BRANCH  22  23
ATOM     23  N   UNL     1     -11.862  13.791  69.111  1.00  0.00    -0.270 N 
ATOM     24  C   UNL     1     -11.969  13.079  67.933  1.00  0.00     0.401 C 
ATOM     25  H   UNL     1     -11.818  13.285  69.956  1.00  0.00     0.153 HD
ATOM     26  O   UNL     1     -12.033  13.564  66.808  1.00  0.00    -0.226 OA
BRANCH  24  27
ATOM     27  O   UNL     1     -11.995  11.739  68.201  1.00  0.00    -0.446 OA
BRANCH  27  28
ATOM     28  C   UNL     1     -10.935  11.249  69.030  1.00  0.00     0.269 C 
BRANCH  28  29
ATOM     29  C   UNL     1     -11.522  10.427  70.141  1.00  0.00    -0.010 A 
ATOM     30  C   UNL     1     -12.616  10.907  70.861  1.00  0.00     0.007 A 
ATOM     31  C   UNL     1     -10.974   9.182  70.452  1.00  0.00     0.007 A 
ATOM     32  C   UNL     1     -13.162  10.143  71.893  1.00  0.00     0.000 A 
ATOM     33  C   UNL     1     -11.520   8.418  71.483  1.00  0.00     0.000 A 
ATOM     34  C   UNL     1     -12.613   8.899  72.204  1.00  0.00     0.000 A 
ENDBRANCH  28  29
ENDBRANCH  27  28
ENDBRANCH  24  27
ENDBRANCH  22  23
BRANCH  22  35
ATOM     35  C   UNL     1     -12.498  15.776  70.434  1.00  0.00     0.035 C 
BRANCH  35  36
ATOM     36  C   UNL     1     -12.548  14.797  71.625  1.00  0.00    -0.015 C 
ATOM     37  C   UNL     1     -11.961  15.400  72.901  1.00  0.00     0.007 C 
ATOM     38  C   UNL     1     -13.995  14.365  71.878  1.00  0.00     0.007 C 
ENDBRANCH  35  36
ENDBRANCH  22  35
ENDBRANCH   3  22
TORSDOF 14

ENDMDL
MODEL 7
REMARK VINA RESULT:    -6.207      2.890      5.467
REMARK INTER + INTRA:         -13.946
REMARK INTER:                 -11.519
REMARK INTRA:                  -2.427
REMARK UNBOUND:                -3.022
REMARK SMILES CC(C)C[C@H](NC(=O)OCc1ccccc1)C(=O)N[C@@H](C[C@H]1CCNC1=O)[C@H](O)S(=O)(=O)O
REMARK SMILES IDX 18 1 19 2 17 3 20 5 28 6 30 7 31 8 32 9 33 10 29 12 21 14
REMARK SMILES IDX 22 15 23 16 26 17 24 18 27 19 25 20 5 22 6 23 7 24 8 26 9 27
REMARK SMILES IDX 10 28 11 29 12 30 16 31 13 32 15 33 14 34 4 35 2 36 1 37
REMARK SMILES IDX 3 38
REMARK H PARENT 19 4 33 11 29 13 25 21 6 25
REMARK INDEX MAP 5 1 10 2 21 3 36 4 15 5 18 6 1 7 6 8 7 9 4 10 35 11 2 12
REMARK INDEX MAP 34 13 14 14 13 15 16 16 19 17 17 18 3 19 11 20 37 21 20 22
REMARK INDEX MAP 12 23 26 24 38 25 9 26 8 27 27 28 28 29 29 30 30 31 31 32
REMARK INDEX MAP 32 33 33 34 22 35 23 36 24 37 25 38
REMARK Flexibility Score: inf
ROOT
ATOM      1  O   UNL     1     -12.190  14.515  66.779  1.00  0.00    -0.274 OA
ATOM      2  N   UNL     1     -10.257  15.328  67.777  1.00  0.00    -0.307 N 
ATOM      3  C   UNL     1     -10.974  14.477  66.947  1.00  0.00     0.234 C 
ATOM      4  H   UNL     1      -9.281  15.209  67.839  1.00  0.00     0.149 HD
ENDROOT
BRANCH   2   5
ATOM      5  C   UNL     1     -10.873  16.379  68.555  1.00  0.00     0.127 C 
BRANCH   5   6
ATOM      6  C   UNL     1     -10.210  17.741  68.276  1.00  0.00     0.306 C 
BRANCH   6   7
ATOM      7  S   UNL     1      -8.729  17.588  67.272  1.00  0.00     0.109 S 
ATOM      8  O   UNL     1      -9.104  17.260  65.912  1.00  0.00    -0.145 OA
ATOM      9  O   UNL     1      -7.748  16.812  68.004  1.00  0.00    -0.145 OA
BRANCH   7  10
ATOM     10  O   UNL     1      -8.288  19.157  67.323  1.00  0.00    -0.252 OA
ATOM     11  H   UNL     1      -7.952  19.427  66.454  1.00  0.00     0.245 HD
ENDBRANCH   7  10
ENDBRANCH   6   7
BRANCH   6  12
ATOM     12  O   UNL     1     -11.147  18.662  67.727  1.00  0.00    -0.368 OA
ATOM     13  H   UNL     1     -11.924  18.717  68.304  1.00  0.00     0.212 HD
ENDBRANCH   6  12
ENDBRANCH   5   6
BRANCH   5  14
ATOM     14  C   UNL     1     -10.822  16.035  70.053  1.00  0.00     0.039 C 
BRANCH  14  15
ATOM     15  C   UNL     1     -12.129  15.466  70.569  1.00  0.00     0.078 C 
ATOM     16  C   UNL     1     -12.252  13.953  70.371  1.00  0.00     0.031 C 
ATOM     17  C   UNL     1     -12.286  15.612  72.072  1.00  0.00     0.216 C 
ATOM     18  C   UNL     1     -13.218  13.537  71.463  1.00  0.00     0.105 C 
ATOM     19  O   UNL     1     -11.941  16.574  72.741  1.00  0.00    -0.276 OA
ATOM     20  N   UNL     1     -12.937  14.467  72.523  1.00  0.00    -0.315 N 
ATOM     21  H   UNL     1     -13.179  14.310  73.464  1.00  0.00     0.149 HD
ENDBRANCH  14  15
ENDBRANCH   5  14
ENDBRANCH   2   5
BRANCH   3  22
ATOM     22  C   UNL     1     -10.079  13.429  66.293  1.00  0.00     0.162 C 
BRANCH  22  23
ATOM     23  N   UNL     1     -10.241  12.207  67.038  1.00  0.00    -0.270 N 
ATOM     24  C   UNL     1      -9.194  11.501  67.598  1.00  0.00     0.401 C 
ATOM     25  H   UNL     1     -11.154  11.855  67.157  1.00  0.00     0.153 HD
ATOM     26  O   UNL     1      -8.009  11.811  67.536  1.00  0.00    -0.226 OA
BRANCH  24  27
ATOM     27  O   UNL     1      -9.673  10.392  68.238  1.00  0.00    -0.446 OA
BRANCH  27  28
ATOM     28  C   UNL     1     -10.933  10.551  68.901  1.00  0.00     0.269 C 
BRANCH  28  29
ATOM     29  C   UNL     1     -10.920   9.757  70.175  1.00  0.00    -0.010 A 
ATOM     30  C   UNL     1      -9.719   9.240  70.663  1.00  0.00     0.007 A 
ATOM     31  C   UNL     1     -12.108   9.537  70.872  1.00  0.00     0.007 A 
ATOM     32  C   UNL     1      -9.707   8.503  71.847  1.00  0.00     0.000 A 
ATOM     33  C   UNL     1     -12.096   8.799  72.056  1.00  0.00     0.000 A 
ATOM     34  C   UNL     1     -10.896   8.282  72.543  1.00  0.00     0.000 A 
ENDBRANCH  28  29
ENDBRANCH  27  28
ENDBRANCH  24  27
ENDBRANCH  22  23
BRANCH  22  35
ATOM     35  C   UNL     1     -10.450  13.261  64.815  1.00  0.00     0.035 C 
BRANCH  35  36
ATOM     36  C   UNL     1     -11.197  11.954  64.480  1.00  0.00    -0.015 C 
ATOM     37  C   UNL     1     -12.510  12.208  63.737  1.00  0.00     0.007 C 
ATOM     38  C   UNL     1     -10.298  11.044  63.640  1.00  0.00     0.007 C 
ENDBRANCH  35  36
ENDBRANCH  22  35
ENDBRANCH   3  22
TORSDOF 14

ENDMDL
MODEL 8
REMARK VINA RESULT:    -6.013      2.626      7.057
REMARK INTER + INTRA:         -13.604
REMARK INTER:                 -11.198
REMARK INTRA:                  -2.406
REMARK UNBOUND:                -3.022
REMARK SMILES CC(C)C[C@H](NC(=O)OCc1ccccc1)C(=O)N[C@@H](C[C@H]1CCNC1=O)[C@H](O)S(=O)(=O)O
REMARK SMILES IDX 18 1 19 2 17 3 20 5 28 6 30 7 31 8 32 9 33 10 29 12 21 14
REMARK SMILES IDX 22 15 23 16 26 17 24 18 27 19 25 20 5 22 6 23 7 24 8 26 9 27
REMARK SMILES IDX 10 28 11 29 12 30 16 31 13 32 15 33 14 34 4 35 2 36 1 37
REMARK SMILES IDX 3 38
REMARK H PARENT 19 4 33 11 29 13 25 21 6 25
REMARK INDEX MAP 5 1 10 2 21 3 36 4 15 5 18 6 1 7 6 8 7 9 4 10 35 11 2 12
REMARK INDEX MAP 34 13 14 14 13 15 16 16 19 17 17 18 3 19 11 20 37 21 20 22
REMARK INDEX MAP 12 23 26 24 38 25 9 26 8 27 27 28 28 29 29 30 30 31 31 32
REMARK INDEX MAP 32 33 33 34 22 35 23 36 24 37 25 38
REMARK Flexibility Score: inf
ROOT
ATOM      1  O   UNL     1     -12.406  14.242  68.271  1.00  0.00    -0.274 OA
ATOM      2  N   UNL     1     -10.256  13.543  68.802  1.00  0.00    -0.307 N 
ATOM      3  C   UNL     1     -11.369  14.365  68.919  1.00  0.00     0.234 C 
ATOM      4  H   UNL     1      -9.475  13.731  69.372  1.00  0.00     0.149 HD
ENDROOT
BRANCH   2   5
ATOM      5  C   UNL     1     -10.189  12.426  67.888  1.00  0.00     0.127 C 
BRANCH   5   6
ATOM      6  C   UNL     1      -9.793  11.129  68.619  1.00  0.00     0.306 C 
BRANCH   6   7
ATOM      7  S   UNL     1     -11.221  10.137  69.072  1.00  0.00     0.109 S 
ATOM      8  O   UNL     1     -12.406  10.970  69.057  1.00  0.00    -0.145 OA
ATOM      9  O   UNL     1     -10.874   9.319  70.217  1.00  0.00    -0.145 OA
BRANCH   7  10
ATOM     10  O   UNL     1     -11.235   9.189  67.746  1.00  0.00    -0.252 OA
ATOM     11  H   UNL     1     -10.529   9.469  67.141  1.00  0.00     0.245 HD
ENDBRANCH   7  10
ENDBRANCH   6   7
BRANCH   6  12
ATOM     12  O   UNL     1      -8.834  10.392  67.867  1.00  0.00    -0.368 OA
ATOM     13  H   UNL     1      -9.285   9.893  67.167  1.00  0.00     0.212 HD
ENDBRANCH   6  12
ENDBRANCH   5   6
BRANCH   5  14
ATOM     14  C   UNL     1      -9.213  12.734  66.739  1.00  0.00     0.039 C 
BRANCH  14  15
ATOM     15  C   UNL     1      -9.920  12.993  65.424  1.00  0.00     0.078 C 
ATOM     16  C   UNL     1     -11.269  12.279  65.309  1.00  0.00     0.031 C 
ATOM     17  C   UNL     1     -10.306  14.450  65.236  1.00  0.00     0.216 C 
ATOM     18  C   UNL     1     -12.035  13.138  64.322  1.00  0.00     0.105 C 
ATOM     19  O   UNL     1      -9.639  15.419  65.565  1.00  0.00    -0.276 OA
ATOM     20  N   UNL     1     -11.533  14.461  64.579  1.00  0.00    -0.315 N 
ATOM     21  H   UNL     1     -12.007  15.283  64.318  1.00  0.00     0.149 HD
ENDBRANCH  14  15
ENDBRANCH   5  14
ENDBRANCH   2   5
BRANCH   3  22
ATOM     22  C   UNL     1     -11.143  15.495  69.918  1.00  0.00     0.162 C 
BRANCH  22  23
ATOM     23  N   UNL     1     -10.842  16.680  69.157  1.00  0.00    -0.270 N 
ATOM     24  C   UNL     1      -9.582  16.994  68.687  1.00  0.00     0.401 C 
ATOM     25  H   UNL     1     -11.579  17.303  68.959  1.00  0.00     0.153 HD
ATOM     26  O   UNL     1      -8.569  16.321  68.851  1.00  0.00    -0.226 OA
BRANCH  24  27
ATOM     27  O   UNL     1      -9.624  18.178  68.003  1.00  0.00    -0.446 OA
BRANCH  27  28
ATOM     28  C   UNL     1      -9.330  19.351  68.769  1.00  0.00     0.269 C 
BRANCH  28  29
ATOM     29  C   UNL     1      -7.961  19.845  68.402  1.00  0.00    -0.010 A 
ATOM     30  C   UNL     1      -7.714  20.326  67.116  1.00  0.00     0.007 A 
ATOM     31  C   UNL     1      -6.936  19.826  69.348  1.00  0.00     0.007 A 
ATOM     32  C   UNL     1      -6.442  20.786  66.775  1.00  0.00     0.000 A 
ATOM     33  C   UNL     1      -5.664  20.286  69.007  1.00  0.00     0.000 A 
ATOM     34  C   UNL     1      -5.417  20.765  67.721  1.00  0.00     0.000 A 
ENDBRANCH  28  29
ENDBRANCH  27  28
ENDBRANCH  24  27
ENDBRANCH  22  23
BRANCH  22  35
ATOM     35  C   UNL     1     -12.380  15.674  70.806  1.00  0.00     0.035 C 
BRANCH  35  36
ATOM     36  C   UNL     1     -12.407  14.784  72.066  1.00  0.00    -0.015 C 
ATOM     37  C   UNL     1     -12.536  15.601  73.353  1.00  0.00     0.007 C 
ATOM     38  C   UNL     1     -13.564  13.787  71.970  1.00  0.00     0.007 C 
ENDBRANCH  35  36
ENDBRANCH  22  35
ENDBRANCH   3  22
TORSDOF 14

ENDMDL
MODEL 9
REMARK VINA RESULT:    -5.637      3.146      8.015
REMARK INTER + INTRA:         -12.943
REMARK INTER:                 -10.566
REMARK INTRA:                  -2.378
REMARK UNBOUND:                -3.022
REMARK SMILES CC(C)C[C@H](NC(=O)OCc1ccccc1)C(=O)N[C@@H](C[C@H]1CCNC1=O)[C@H](O)S(=O)(=O)O
REMARK SMILES IDX 18 1 19 2 17 3 20 5 28 6 30 7 31 8 32 9 33 10 29 12 21 14
REMARK SMILES IDX 22 15 23 16 26 17 24 18 27 19 25 20 5 22 6 23 7 24 8 26 9 27
REMARK SMILES IDX 10 28 11 29 12 30 16 31 13 32 15 33 14 34 4 35 2 36 1 37
REMARK SMILES IDX 3 38
REMARK H PARENT 19 4 33 11 29 13 25 21 6 25
REMARK INDEX MAP 5 1 10 2 21 3 36 4 15 5 18 6 1 7 6 8 7 9 4 10 35 11 2 12
REMARK INDEX MAP 34 13 14 14 13 15 16 16 19 17 17 18 3 19 11 20 37 21 20 22
REMARK INDEX MAP 12 23 26 24 38 25 9 26 8 27 27 28 28 29 29 30 30 31 31 32
REMARK INDEX MAP 32 33 33 34 22 35 23 36 24 37 25 38
REMARK Flexibility Score: inf
ROOT
ATOM      1  O   UNL     1     -10.848  17.198  68.588  1.00  0.00    -0.274 OA
ATOM      2  N   UNL     1     -10.643  15.207  67.410  1.00  0.00    -0.307 N 
ATOM      3  C   UNL     1     -10.312  16.521  67.714  1.00  0.00     0.234 C 
ATOM      4  H   UNL     1     -10.148  14.756  66.688  1.00  0.00     0.149 HD
ENDROOT
BRANCH   2   5
ATOM      5  C   UNL     1     -11.677  14.471  68.101  1.00  0.00     0.127 C 
BRANCH   5   6
ATOM      6  C   UNL     1     -11.194  13.996  69.485  1.00  0.00     0.306 C 
BRANCH   6   7
ATOM      7  S   UNL     1     -12.171  14.688  70.824  1.00  0.00     0.109 S 
ATOM      8  O   UNL     1     -11.298  15.406  71.731  1.00  0.00    -0.145 OA
ATOM      9  O   UNL     1     -13.099  13.679  71.292  1.00  0.00    -0.145 OA
BRANCH   7  10
ATOM     10  O   UNL     1     -12.995  15.774  69.930  1.00  0.00    -0.252 OA
ATOM     11  H   UNL     1     -13.451  15.316  69.205  1.00  0.00     0.245 HD
ENDBRANCH   7  10
ENDBRANCH   6   7
BRANCH   6  12
ATOM     12  O   UNL     1     -11.123  12.575  69.540  1.00  0.00    -0.368 OA
ATOM     13  H   UNL     1     -11.426  12.269  70.409  1.00  0.00     0.212 HD
ENDBRANCH   6  12
ENDBRANCH   5   6
BRANCH   5  14
ATOM     14  C   UNL     1     -12.152  13.285  67.243  1.00  0.00     0.039 C 
BRANCH  14  15
ATOM     15  C   UNL     1     -11.360  13.136  65.960  1.00  0.00     0.078 C 
ATOM     16  C   UNL     1     -10.935  11.693  65.674  1.00  0.00     0.031 C 
ATOM     17  C   UNL     1     -12.166  13.488  64.722  1.00  0.00     0.216 C 
ATOM     18  C   UNL     1     -10.781  11.668  64.165  1.00  0.00     0.105 C 
ATOM     19  O   UNL     1     -12.974  14.399  64.626  1.00  0.00    -0.276 OA
ATOM     20  N   UNL     1     -11.770  12.609  63.718  1.00  0.00    -0.315 N 
ATOM     21  H   UNL     1     -12.128  12.630  62.802  1.00  0.00     0.149 HD
ENDBRANCH  14  15
ENDBRANCH   5  14
ENDBRANCH   2   5
BRANCH   3  22
ATOM     22  C   UNL     1      -9.226  17.065  66.791  1.00  0.00     0.162 C 
BRANCH  22  23
ATOM     23  N   UNL     1      -8.758  18.298  67.368  1.00  0.00    -0.270 N 
ATOM     24  C   UNL     1      -8.981  19.543  66.812  1.00  0.00     0.401 C 
ATOM     25  H   UNL     1      -8.249  18.252  68.211  1.00  0.00     0.153 HD
ATOM     26  O   UNL     1      -9.594  19.762  65.773  1.00  0.00    -0.226 OA
BRANCH  24  27
ATOM     27  O   UNL     1      -8.413  20.509  67.596  1.00  0.00    -0.446 OA
BRANCH  27  28
ATOM     28  C   UNL     1      -7.056  20.846  67.286  1.00  0.00     0.269 C 
BRANCH  28  29
ATOM     29  C   UNL     1      -6.151  20.226  68.310  1.00  0.00    -0.010 A 
ATOM     30  C   UNL     1      -4.866  19.818  67.951  1.00  0.00     0.007 A 
ATOM     31  C   UNL     1      -6.594  20.059  69.622  1.00  0.00     0.007 A 
ATOM     32  C   UNL     1      -4.025  19.243  68.903  1.00  0.00     0.000 A 
ATOM     33  C   UNL     1      -5.753  19.483  70.574  1.00  0.00     0.000 A 
ATOM     34  C   UNL     1      -4.469  19.075  70.214  1.00  0.00     0.000 A 
ENDBRANCH  28  29
ENDBRANCH  27  28
ENDBRANCH  24  27
ENDBRANCH  22  23
BRANCH  22  35
ATOM     35  C   UNL     1      -8.101  16.036  66.629  1.00  0.00     0.035 C 
BRANCH  35  36
ATOM     36  C   UNL     1      -7.351  15.687  67.931  1.00  0.00    -0.015 C 
ATOM     37  C   UNL     1      -7.244  14.178  68.154  1.00  0.00     0.007 C 
ATOM     38  C   UNL     1      -5.951  16.304  67.902  1.00  0.00     0.007 C 
ENDBRANCH  35  36
ENDBRANCH  22  35
ENDBRANCH   3  22
TORSDOF 14

ENDMDL
MODEL 10
REMARK VINA RESULT:    -5.409      3.606      5.647
REMARK INTER + INTRA:         -12.542
REMARK INTER:                  -9.520
REMARK INTRA:                  -3.022
REMARK UNBOUND:                -3.022
REMARK SMILES CC(C)C[C@H](NC(=O)OCc1ccccc1)C(=O)N[C@@H](C[C@H]1CCNC1=O)[C@H](O)S(=O)(=O)O
REMARK SMILES IDX 18 1 19 2 17 3 20 5 28 6 30 7 31 8 32 9 33 10 29 12 21 14
REMARK SMILES IDX 22 15 23 16 26 17 24 18 27 19 25 20 5 22 6 23 7 24 8 26 9 27
REMARK SMILES IDX 10 28 11 29 12 30 16 31 13 32 15 33 14 34 4 35 2 36 1 37
REMARK SMILES IDX 3 38
REMARK H PARENT 19 4 33 11 29 13 25 21 6 25
REMARK INDEX MAP 5 1 10 2 21 3 36 4 15 5 18 6 1 7 6 8 7 9 4 10 35 11 2 12
REMARK INDEX MAP 34 13 14 14 13 15 16 16 19 17 17 18 3 19 11 20 37 21 20 22
REMARK INDEX MAP 12 23 26 24 38 25 9 26 8 27 27 28 28 29 29 30 30 31 31 32
REMARK INDEX MAP 32 33 33 34 22 35 23 36 24 37 25 38
REMARK Flexibility Score: inf
ROOT
ATOM      1  O   UNL     1      -6.765  16.902  69.755  1.00  0.00    -0.274 OA
ATOM      2  N   UNL     1      -7.512  17.455  67.627  1.00  0.00    -0.307 N 
ATOM      3  C   UNL     1      -7.272  16.585  68.682  1.00  0.00     0.234 C 
ATOM      4  H   UNL     1      -7.925  17.095  66.809  1.00  0.00     0.149 HD
ENDROOT
BRANCH   2   5
ATOM      5  C   UNL     1      -7.187  18.862  67.672  1.00  0.00     0.127 C 
BRANCH   5   6
ATOM      6  C   UNL     1      -8.096  19.676  66.731  1.00  0.00     0.306 C 
BRANCH   6   7
ATOM      7  S   UNL     1      -9.808  19.136  66.799  1.00  0.00     0.109 S 
ATOM      8  O   UNL     1     -10.642  20.099  66.111  1.00  0.00    -0.145 OA
ATOM      9  O   UNL     1     -10.103  18.693  68.147  1.00  0.00    -0.145 OA
BRANCH   7  10
ATOM     10  O   UNL     1      -9.641  17.822  65.849  1.00  0.00    -0.252 OA
ATOM     11  H   UNL     1     -10.264  17.135  66.135  1.00  0.00     0.245 HD
ENDBRANCH   7  10
ENDBRANCH   6   7
BRANCH   6  12
ATOM     12  O   UNL     1      -7.956  21.073  66.969  1.00  0.00    -0.368 OA
ATOM     13  H   UNL     1      -7.619  21.506  66.169  1.00  0.00     0.212 HD
ENDBRANCH   6  12
ENDBRANCH   5   6
BRANCH   5  14
ATOM     14  C   UNL     1      -5.702  19.078  67.330  1.00  0.00     0.039 C 
BRANCH  14  15
ATOM     15  C   UNL     1      -4.902  19.607  68.504  1.00  0.00     0.078 C 
ATOM     16  C   UNL     1      -5.773  20.216  69.606  1.00  0.00     0.031 C 
ATOM     17  C   UNL     1      -4.151  18.517  69.247  1.00  0.00     0.216 C 
ATOM     18  C   UNL     1      -4.917  20.063  70.849  1.00  0.00     0.105 C 
ATOM     19  O   UNL     1      -3.591  17.557  68.742  1.00  0.00    -0.276 OA
ATOM     20  N   UNL     1      -4.186  18.852  70.599  1.00  0.00    -0.315 N 
ATOM     21  H   UNL     1      -3.757  18.318  71.305  1.00  0.00     0.149 HD
ENDBRANCH  14  15
ENDBRANCH   5  14
ENDBRANCH   2   5
BRANCH   3  22
ATOM     22  C   UNL     1      -7.662  15.151  68.340  1.00  0.00     0.162 C 
BRANCH  22  23
ATOM     23  N   UNL     1      -8.864  15.215  67.549  1.00  0.00    -0.270 N 
ATOM     24  C   UNL     1     -10.138  15.228  68.083  1.00  0.00     0.401 C 
ATOM     25  H   UNL     1      -8.772  15.253  66.569  1.00  0.00     0.153 HD
ATOM     26  O   UNL     1     -10.413  15.187  69.278  1.00  0.00    -0.226 OA
BRANCH  24  27
ATOM     27  O   UNL     1     -11.062  15.295  67.077  1.00  0.00    -0.446 OA
BRANCH  27  28
ATOM     28  C   UNL     1     -12.023  14.234  67.042  1.00  0.00     0.269 C 
BRANCH  28  29
ATOM     29  C   UNL     1     -11.742  13.358  65.856  1.00  0.00    -0.010 A 
ATOM     30  C   UNL     1     -10.920  12.240  65.993  1.00  0.00     0.007 A 
ATOM     31  C   UNL     1     -12.305  13.661  64.616  1.00  0.00     0.007 A 
ATOM     32  C   UNL     1     -10.660  11.425  64.891  1.00  0.00     0.000 A 
ATOM     33  C   UNL     1     -12.045  12.847  63.514  1.00  0.00     0.000 A 
ATOM     34  C   UNL     1     -11.222  11.729  63.652  1.00  0.00     0.000 A 
ENDBRANCH  28  29
ENDBRANCH  27  28
ENDBRANCH  24  27
ENDBRANCH  22  23
BRANCH  22  35
ATOM     35  C   UNL     1      -6.517  14.451  67.599  1.00  0.00     0.035 C 
BRANCH  35  36
ATOM     36  C   UNL     1      -6.008  13.158  68.268  1.00  0.00    -0.015 C 
ATOM     37  C   UNL     1      -5.579  13.383  69.719  1.00  0.00     0.007 C 
ATOM     38  C   UNL     1      -7.097  12.084  68.213  1.00  0.00     0.007 C 
ENDBRANCH  35  36
ENDBRANCH  22  35
ENDBRANCH   3  22
TORSDOF 14

ENDMDL
