REMARK SMILES CC(C)C[C@H](NC(=O)OCc1ccccc1)C(=O)N[C@@H](C[C@H]1CCNC1=O)[C@H](O)S(=O)(=O)O
REMARK SMILES IDX 18 1 19 2 17 3 20 5 28 6 30 7 31 8 32 9 33 10 29 12 21 14
REMARK SMILES IDX 22 15 23 16 26 17 24 18 27 19 25 20 5 22 6 23 7 24 8 26 9 27
REMARK SMILES IDX 10 28 11 29 12 30 16 31 13 32 15 33 14 34 4 35 2 36 1 37
REMARK SMILES IDX 3 38
REMARK H PARENT 19 4 33 11 29 13 25 21 6 25
REMARK INDEX MAP 5 1 10 2 21 3 36 4 15 5 18 6 1 7 6 8 7 9 4 10 35 11 2 12
REMARK INDEX MAP 34 13 14 14 13 15 16 16 19 17 17 18 3 19 11 20 37 21 20 22
REMARK INDEX MAP 12 23 26 24 38 25 9 26 8 27 27 28 28 29 29 30 30 31 31 32
REMARK INDEX MAP 32 33 33 34 22 35 23 36 24 37 25 38
REMARK Flexibility Score: inf
ROOT
ATOM      1  O   UNL     1       0.489   0.842   1.472  1.00  0.00    -0.274 OA
ATOM      2  N   UNL     1       1.831   0.919  -0.422  1.00  0.00    -0.307 N 
ATOM      3  C   UNL     1       0.678   1.181   0.306  1.00  0.00     0.234 C 
ATOM      4  H   UNL     1       1.878   1.237  -1.353  1.00  0.00     0.149 HD
ENDROOT
BRANCH   2   5
ATOM      5  C   UNL     1       2.964   0.204   0.119  1.00  0.00     0.127 C 
BRANCH   5   6
ATOM      6  C   UNL     1       3.946   1.162   0.820  1.00  0.00     0.306 C 
BRANCH   6   7
ATOM      7  S   UNL     1       4.877   0.352   2.125  1.00  0.00     0.109 S 
ATOM      8  O   UNL     1       5.969  -0.398   1.539  1.00  0.00    -0.145 OA
ATOM      9  O   UNL     1       3.945  -0.253   3.055  1.00  0.00    -0.145 OA
BRANCH   7  10
ATOM     10  O   UNL     1       5.483   1.703   2.807  1.00  0.00    -0.252 OA
ATOM     11  H   UNL     1       6.039   1.461   3.565  1.00  0.00     0.245 HD
ENDBRANCH   7  10
ENDBRANCH   6   7
BRANCH   6  12
ATOM     12  O   UNL     1       4.788   1.812  -0.127  1.00  0.00    -0.368 OA
ATOM     13  H   UNL     1       5.396   2.409   0.336  1.00  0.00     0.212 HD
ENDBRANCH   6  12
ENDBRANCH   5   6
BRANCH   5  14
ATOM     14  C   UNL     1       3.668  -0.598  -0.989  1.00  0.00     0.039 C 
BRANCH  14  15
ATOM     15  C   UNL     1       2.915  -1.857  -1.370  1.00  0.00     0.078 C 
ATOM     16  C   UNL     1       3.324  -2.419  -2.734  1.00  0.00     0.031 C 
ATOM     17  C   UNL     1       3.201  -3.022  -0.439  1.00  0.00     0.216 C 
ATOM     18  C   UNL     1       2.992  -3.894  -2.616  1.00  0.00     0.105 C 
ATOM     19  O   UNL     1       3.345  -2.956   0.772  1.00  0.00    -0.276 OA
ATOM     20  N   UNL     1       3.217  -4.172  -1.224  1.00  0.00    -0.315 N 
ATOM     21  H   UNL     1       3.366  -5.076  -0.866  1.00  0.00     0.149 HD
ENDBRANCH  14  15
ENDBRANCH   5  14
ENDBRANCH   2   5
BRANCH   3  22
ATOM     22  C   UNL     1      -0.375   1.901  -0.530  1.00  0.00     0.162 C 
BRANCH  22  23
ATOM     23  N   UNL     1      -1.659   1.384  -0.132  1.00  0.00    -0.270 N 
ATOM     24  C   UNL     1      -2.234   0.250  -0.672  1.00  0.00     0.401 C 
ATOM     25  H   UNL     1      -2.156   1.867   0.568  1.00  0.00     0.153 HD
ATOM     26  O   UNL     1      -1.740  -0.455  -1.546  1.00  0.00    -0.226 OA
BRANCH  24  27
ATOM     27  O   UNL     1      -3.448   0.022  -0.086  1.00  0.00    -0.446 OA
BRANCH  27  28
ATOM     28  C   UNL     1      -4.160  -1.129  -0.554  1.00  0.00     0.269 C 
BRANCH  28  29
ATOM     29  C   UNL     1      -5.462  -1.234   0.185  1.00  0.00    -0.010 A 
ATOM     30  C   UNL     1      -5.532  -1.957   1.376  1.00  0.00     0.007 A 
ATOM     31  C   UNL     1      -6.602  -0.607  -0.318  1.00  0.00     0.007 A 
ATOM     32  C   UNL     1      -6.742  -2.054   2.063  1.00  0.00     0.000 A 
ATOM     33  C   UNL     1      -7.812  -0.704   0.369  1.00  0.00     0.000 A 
ATOM     34  C   UNL     1      -7.882  -1.428   1.559  1.00  0.00     0.000 A 
ENDBRANCH  28  29
ENDBRANCH  27  28
ENDBRANCH  24  27
ENDBRANCH  22  23
BRANCH  22  35
ATOM     35  C   UNL     1      -0.271   3.417  -0.325  1.00  0.00     0.035 C 
BRANCH  35  36
ATOM     36  C   UNL     1      -1.323   4.247  -1.089  1.00  0.00    -0.015 C 
ATOM     37  C   UNL     1      -1.204   5.744  -0.802  1.00  0.00     0.007 C 
ATOM     38  C   UNL     1      -1.185   3.998  -2.593  1.00  0.00     0.007 C 
ENDBRANCH  35  36
ENDBRANCH  22  35
ENDBRANCH   3  22
TORSDOF 14

