155903259
  PyMOL2.4          3D                             0

 35 37  0  0  1  0  0  0  0  0999 V2000
   -5.2651    0.3853    2.1308 F   0  0  0  0  0  0  0  0  0  0  0  0
   -5.8314    2.2135    1.0849 F   0  0  0  0  0  0  0  0  0  0  0  0
   -4.0158    2.1639    2.2891 F   0  0  0  0  0  0  0  0  0  0  0  0
    1.8747   -1.8859   -1.5122 O   0  0  0  0  0  0  0  0  0  0  0  0
    0.0035    0.6408    0.8113 O   0  0  0  0  0  0  0  0  0  0  0  0
   -4.4964    0.3236   -0.6689 O   0  0  0  0  0  0  0  0  0  0  0  0
    3.7449    2.9461    1.9493 O   0  0  0  0  0  0  0  0  0  0  0  0
   -0.6890   -1.0865   -0.5681 N   0  0  0  0  0  0  0  0  0  0  0  0
    2.3460   -1.5920    0.7482 N   0  0  0  0  0  0  0  0  0  0  0  0
   -2.6719    1.4254    0.2686 N   0  0  0  0  0  0  0  0  0  0  0  0
    4.2828    3.4118   -0.2800 N   0  0  0  0  0  0  0  0  0  0  0  0
    5.1671   -3.1201    1.8606 N   0  0  0  0  0  0  0  0  0  0  0  0
   -0.4011   -3.4218   -0.4812 C   0  0  1  0  0  0  0  0  0  0  0  0
   -1.8334   -3.9081   -0.3288 C   0  0  0  0  0  0  0  0  0  0  0  0
   -1.4027   -3.1035   -1.5436 C   0  0  1  0  0  0  0  0  0  0  0  0
    0.1127   -2.1288    0.0777 C   0  0  1  0  0  0  0  0  0  0  0  0
   -1.5341   -1.6173   -1.6420 C   0  0  0  0  0  0  0  0  0  0  0  0
   -2.0815   -5.3814   -0.5422 C   0  0  0  0  0  0  0  0  0  0  0  0
   -2.7379   -3.3010    0.7122 C   0  0  0  0  0  0  0  0  0  0  0  0
    1.5277   -1.8669   -0.3343 C   0  0  0  0  0  0  0  0  0  0  0  0
   -0.7181    0.2182   -0.0939 C   0  0  0  0  0  0  0  0  0  0  0  0
   -1.7133    1.1335   -0.7618 C   0  0  2  0  0  0  0  0  0  0  0  0
   -1.0657    2.3878   -1.3950 C   0  0  0  0  0  0  0  0  0  0  0  0
    3.7515   -1.2850    0.6147 C   0  0  1  0  0  0  0  0  0  0  0  0
   -0.2991    3.2418   -0.3672 C   0  0  0  0  0  0  0  0  0  0  0  0
   -2.1514    3.2635   -2.0527 C   0  0  0  0  0  0  0  0  0  0  0  0
   -0.0789    1.9478   -2.4966 C   0  0  0  0  0  0  0  0  0  0  0  0
    4.0750    0.1111    1.1604 C   0  0  0  0  0  0  0  0  0  0  0  0
    3.6419    1.2203    0.2219 C   0  0  2  0  0  0  0  0  0  0  0  0
   -3.9901    0.9930    0.2272 C   0  0  0  0  0  0  0  0  0  0  0  0
    4.5427   -2.3102    1.3122 C   0  0  0  0  0  0  0  0  0  0  0  0
    4.4285    1.2436   -1.0918 C   0  0  0  0  0  0  0  0  0  0  0  0
    3.8964    2.6052    0.7865 C   0  0  0  0  0  0  0  0  0  0  0  0
   -4.7723    1.4370    1.4280 C   0  0  0  0  0  0  0  0  0  0  0  0
    4.3538    2.6954   -1.5233 C   0  0  0  0  0  0  0  0  0  0  0  0
  1 34  1  0  0  0  0
  2 34  1  0  0  0  0
  3 34  1  0  0  0  0
  4 20  2  0  0  0  0
  5 21  2  0  0  0  0
  6 30  2  0  0  0  0
  7 33  2  0  0  0  0
  8 16  1  0  0  0  0
  8 17  1  0  0  0  0
  8 21  1  0  0  0  0
  9 20  1  0  0  0  0
  9 24  1  0  0  0  0
 10 22  1  0  0  0  0
 10 30  1  0  0  0  0
 11 33  1  0  0  0  0
 11 35  1  0  0  0  0
 12 31  3  0  0  0  0
 13 14  1  0  0  0  0
 13 15  1  0  0  0  0
 13 16  1  0  0  0  0
 14 15  1  0  0  0  0
 14 18  1  0  0  0  0
 14 19  1  0  0  0  0
 15 17  1  0  0  0  0
 16 20  1  0  0  0  0
 21 22  1  0  0  0  0
 22 23  1  0  0  0  0
 23 25  1  0  0  0  0
 23 26  1  0  0  0  0
 23 27  1  0  0  0  0
 24 28  1  0  0  0  0
 24 31  1  0  0  0  0
 28 29  1  0  0  0  0
 29 32  1  0  0  0  0
 29 33  1  0  0  0  0
 30 34  1  0  0  0  0
 32 35  1  0  0  0  0
M  END
$$$$
