REMARK SMILES CC(C)(C)[C@H](NC(=O)C(F)(F)F)C(=O)N1C[C@H]2[C@@H]([C@H]1C(=O)N[C@H](C#N)C[C@@H]1CCNC1=O)C2(C)C
REMARK SMILES IDX 14 1 15 2 18 3 33 4 17 5 19 6 16 7 34 8 35 9 13 10 5 11 6 12
REMARK SMILES IDX 7 13 8 14 9 16 10 17 11 18 12 19 2 20 1 21 3 22 4 23 20 24
REMARK SMILES IDX 21 25 22 26 23 28 26 29 27 30 28 31 31 32 29 33 32 34 30 35
REMARK SMILES IDX 24 37 25 38
REMARK H PARENT 6 15 22 27 30 36
REMARK INDEX MAP 5 1 8 2 13 3 14 4 15 5 16 6 17 7 18 8 19 9 21 10 22 11 10 12
REMARK INDEX MAP 30 13 6 14 37 15 34 16 1 17 2 18 3 19 23 20 25 21 26 22 27 23
REMARK INDEX MAP 20 24 4 25 9 26 36 27 24 28 28 29 29 30 32 31 33 32 35 33
REMARK INDEX MAP 7 34 11 35 38 36 31 37 12 38
REMARK Flexibility Score: inf
ROOT
ATOM      1  O   UNL     1       0.004   0.641   0.811  1.00  0.00    -0.274 OA
ATOM      2  N   UNL     1      -0.689  -1.087  -0.568  1.00  0.00    -0.288 N 
ATOM      3  C   UNL     1      -0.401  -3.422  -0.481  1.00  0.00     0.030 C 
ATOM      4  C   UNL     1      -1.833  -3.908  -0.329  1.00  0.00    -0.025 C 
ATOM      5  C   UNL     1      -1.403  -3.103  -1.544  1.00  0.00     0.018 C 
ATOM      6  C   UNL     1       0.113  -2.129   0.078  1.00  0.00     0.166 C 
ATOM      7  C   UNL     1      -1.534  -1.617  -1.642  1.00  0.00     0.113 C 
ATOM      8  C   UNL     1      -2.082  -5.381  -0.542  1.00  0.00     0.011 C 
ATOM      9  C   UNL     1      -2.738  -3.301   0.712  1.00  0.00     0.011 C 
ATOM     10  C   UNL     1      -0.718   0.218  -0.094  1.00  0.00     0.237 C 
ENDROOT
BRANCH  10  11
ATOM     11  C   UNL     1      -1.713   1.133  -0.762  1.00  0.00     0.165 C 
BRANCH  11  12
ATOM     12  N   UNL     1      -2.672   1.425   0.269  1.00  0.00    -0.296 N 
ATOM     13  C   UNL     1      -3.990   0.993   0.227  1.00  0.00     0.318 C 
ATOM     14  O   UNL     1      -4.496   0.324  -0.669  1.00  0.00    -0.266 OA
ATOM     15  H   UNL     1      -2.379   1.959   1.042  1.00  0.00     0.150 HD
BRANCH  13  16
ATOM     16  C   UNL     1      -4.772   1.437   1.428  1.00  0.00     0.469 C 
ATOM     17  F   UNL     1      -5.265   0.385   2.131  1.00  0.00    -0.162 F 
ATOM     18  F   UNL     1      -5.831   2.214   1.085  1.00  0.00    -0.162 F 
ATOM     19  F   UNL     1      -4.016   2.164   2.289  1.00  0.00    -0.162 F 
ENDBRANCH  13  16
ENDBRANCH  11  12
BRANCH  11  20
ATOM     20  C   UNL     1      -1.066   2.388  -1.395  1.00  0.00    -0.011 C 
ATOM     21  C   UNL     1      -0.299   3.242  -0.367  1.00  0.00     0.013 C 
ATOM     22  C   UNL     1      -2.151   3.263  -2.053  1.00  0.00     0.013 C 
ATOM     23  C   UNL     1      -0.079   1.948  -2.497  1.00  0.00     0.013 C 
ENDBRANCH  11  20
ENDBRANCH  10  11
BRANCH   6  24
ATOM     24  C   UNL     1       1.528  -1.867  -0.334  1.00  0.00     0.235 C 
ATOM     25  O   UNL     1       1.875  -1.886  -1.512  1.00  0.00    -0.274 OA
ATOM     26  N   UNL     1       2.346  -1.592   0.748  1.00  0.00    -0.298 N 
ATOM     27  H   UNL     1       1.952  -1.606   1.650  1.00  0.00     0.150 HD
BRANCH  26  28
ATOM     28  C   UNL     1       3.751  -1.285   0.615  1.00  0.00     0.177 C 
BRANCH  28  29
ATOM     29  C   UNL     1       4.075   0.111   1.160  1.00  0.00     0.050 C 
BRANCH  29  30
ATOM     30  C   UNL     1       3.642   1.220   0.222  1.00  0.00     0.079 C 
ATOM     31  C   UNL     1       4.429   1.244  -1.092  1.00  0.00     0.031 C 
ATOM     32  C   UNL     1       3.896   2.605   0.786  1.00  0.00     0.216 C 
ATOM     33  C   UNL     1       4.354   2.695  -1.523  1.00  0.00     0.105 C 
ATOM     34  O   UNL     1       3.745   2.946   1.949  1.00  0.00    -0.276 OA
ATOM     35  N   UNL     1       4.283   3.412  -0.280  1.00  0.00    -0.315 N 
ATOM     36  H   UNL     1       4.486   4.371  -0.192  1.00  0.00     0.149 HD
ENDBRANCH  29  30
ENDBRANCH  28  29
BRANCH  28  37
ATOM     37  C   UNL     1       4.543  -2.310   1.312  1.00  0.00     0.085 C 
ATOM     38  N   UNL     1       5.167  -3.120   1.861  1.00  0.00    -0.195 NA
ENDBRANCH  28  37
ENDBRANCH  26  28
ENDBRANCH   6  24
TORSDOF 9

