REMARK SMILES C[C@@H](CO)C1=C(O)C(=O)c2c(ccc3c2CCCC3(C)C)C1=O
REMARK SMILES IDX 2 1 1 2 5 3 22 4 11 5 23 6 6 7 10 8 12 9 8 10 15 11 13 12
REMARK SMILES IDX 9 13 16 14 14 15 17 16 19 17 18 18 20 19 21 20 7 21 3 23
REMARK SMILES IDX 4 24
REMARK H PARENT 7 22 4 25
REMARK INDEX MAP 17 1 19 2 2 3 1 4 14 5 20 6 3 7 5 8 13 9 4 10 6 11 12 12
REMARK INDEX MAP 21 13 7 14 11 15 8 16 10 17 9 18 15 19 16 20 23 21 45 22
REMARK INDEX MAP 18 23 22 24 44 25
REMARK Flexibility Score: inf
ROOT
ATOM      1  C   UNL     1      -4.256  -1.761  -0.103  1.00  0.00     0.049 C 
ATOM      2  C   UNL     1      -4.471  -2.616  -1.379  1.00  0.00     0.015 C 
ENDROOT
BRANCH   1   3
ATOM      3  C   UNL     1      -2.943  -0.990  -0.180  1.00  0.00     0.050 C 
ATOM      4  C   UNL     1      -1.650  -1.713  -0.210  1.00  0.00     0.194 C 
ATOM      5  C   UNL     1      -0.337  -0.970  -0.136  1.00  0.00     0.033 A 
ATOM      6  O   UNL     1      -1.610  -2.927  -0.302  1.00  0.00    -0.287 OA
ATOM      7  C   UNL     1      -2.940   0.352  -0.231  1.00  0.00     0.171 C 
ATOM      8  C   UNL     1      -0.334   0.438  -0.166  1.00  0.00     0.040 A 
ATOM      9  C   UNL     1       0.932  -1.726  -0.038  1.00  0.00     0.013 A 
ATOM     10  C   UNL     1      -1.677   1.121  -0.308  1.00  0.00     0.228 C 
ATOM     11  C   UNL     1       0.954   1.181  -0.075  1.00  0.00    -0.032 A 
ATOM     12  C   UNL     1       2.149  -1.058   0.013  1.00  0.00     0.005 A 
ATOM     13  O   UNL     1      -1.773   2.322  -0.498  1.00  0.00    -0.283 OA
ATOM     14  C   UNL     1       0.936   2.713  -0.035  1.00  0.00     0.036 C 
ATOM     15  C   UNL     1       2.214   0.426  -0.025  1.00  0.00    -0.038 A 
ATOM     16  C   UNL     1       2.287   3.317   0.411  1.00  0.00     0.005 C 
ATOM     17  C   UNL     1       3.591   1.127   0.001  1.00  0.00    -0.010 C 
ATOM     18  C   UNL     1       3.440   2.637  -0.358  1.00  0.00     0.011 C 
ATOM     19  C   UNL     1       4.556   0.498  -1.052  1.00  0.00     0.016 C 
ATOM     20  C   UNL     1       4.201   0.928   1.420  1.00  0.00     0.016 C 
BRANCH   7  21
ATOM     21  O   UNL     1      -4.105   1.013  -0.219  1.00  0.00    -0.503 OA
ATOM     22  H   UNL     1      -4.912   0.540  -0.170  1.00  0.00     0.292 HD
ENDBRANCH   7  21
ENDBRANCH   1   3
BRANCH   1  23
ATOM     23  C   UNL     1      -4.389  -2.602   1.198  1.00  0.00     0.164 C 
BRANCH  23  24
ATOM     24  O   UNL     1      -3.544  -3.764   1.168  1.00  0.00    -0.394 OA
ATOM     25  H   UNL     1      -3.802  -4.332   0.425  1.00  0.00     0.209 HD
ENDBRANCH  23  24
ENDBRANCH   1  23
TORSDOF 4

