MOL000519
  PyMOL2.4          3D                             0

 23 25  0  0  0  0  0  0  0  0999 V2000
   -1.6504   -1.7126   -0.2097 C   0  0  0  0  0  0  0  0  0  0  0  0
   -2.9426   -0.9903   -0.1798 C   0  0  0  0  0  0  0  0  0  0  0  0
   -2.9397    0.3520   -0.2309 C   0  0  0  0  0  0  0  0  0  0  0  0
   -1.6770    1.1206   -0.3084 C   0  0  0  0  0  0  0  0  0  0  0  0
   -0.3339    0.4381   -0.1663 C   0  0  0  0  0  0  0  0  0  0  0  0
    0.9537    1.1806   -0.0755 C   0  0  0  0  0  0  0  0  0  0  0  0
    0.9359    2.7126   -0.0348 C   0  0  0  0  0  0  0  0  0  0  0  0
    2.2873    3.3172    0.4114 C   0  0  0  0  0  0  0  0  0  0  0  0
    3.4404    2.6374   -0.3577 C   0  0  0  0  0  0  0  0  0  0  0  0
    3.5908    1.1266    0.0012 C   0  0  0  0  0  0  0  0  0  0  0  0
    2.2139    0.4264   -0.0252 C   0  0  0  0  0  0  0  0  0  0  0  0
    2.1488   -1.0581    0.0127 C   0  0  0  0  0  0  0  0  0  0  0  0
    0.9323   -1.7263   -0.0378 C   0  0  0  0  0  0  0  0  0  0  0  0
   -0.3366   -0.9699   -0.1359 C   0  0  0  0  0  0  0  0  0  0  0  0
    4.5559    0.4975   -1.0517 C   0  0  0  0  0  0  0  0  0  0  0  0
    4.2011    0.9280    1.4197 C   0  0  0  0  0  0  0  0  0  0  0  0
   -4.2560   -1.7606   -0.1029 C   0  0  0  0  0  0  0  0  0  0  0  0
   -4.3893   -2.6023    1.1979 C   0  0  0  0  0  0  0  0  0  0  0  0
   -4.4709   -2.6159   -1.3793 C   0  0  0  0  0  0  0  0  0  0  0  0
   -1.6098   -2.9271   -0.3017 O   0  0  0  0  0  0  0  0  0  0  0  0
   -1.7730    2.3216   -0.4980 O   0  0  0  0  0  0  0  0  0  0  0  0
   -3.5441   -3.7637    1.1676 O   0  0  0  0  0  0  0  0  0  0  0  0
   -4.1052    1.0135   -0.2189 O   0  0  0  0  0  0  0  0  0  0  0  0
  1  2  1  0  0  0  0
  1 14  1  0  0  0  0
  1 20  2  0  0  0  0
  2  3  2  0  0  0  0
  2 17  1  0  0  0  0
  3  4  1  0  0  0  0
  3 23  1  0  0  0  0
  4  5  1  0  0  0  0
  4 21  2  0  0  0  0
  5  6  1  0  0  0  0
  5 14  2  0  0  0  0
  6  7  1  0  0  0  0
  6 11  2  0  0  0  0
  7  8  1  0  0  0  0
  8  9  1  0  0  0  0
  9 10  1  0  0  0  0
 10 11  1  0  0  0  0
 10 15  1  0  0  0  0
 10 16  1  0  0  0  0
 11 12  1  0  0  0  0
 12 13  2  0  0  0  0
 13 14  1  0  0  0  0
 17 18  1  0  0  0  0
 17 19  1  0  0  0  0
 18 22  1  0  0  0  0
M  END
$$$$
