MODEL 1
REMARK VINA RESULT:    -7.544      0.000      0.000
REMARK INTER + INTRA:          -9.678
REMARK INTER:                  -9.308
REMARK INTRA:                  -0.370
REMARK UNBOUND:                -0.370
REMARK SMILES Oc1cc(O)c2cc(O)c(-c3cc(O)c(O)c(O)c3)cc2c1
REMARK SMILES IDX 10 1 8 2 7 3 21 4 6 5 22 6 4 7 2 8 3 9 20 10 11 11 12 12
REMARK SMILES IDX 19 13 13 14 17 15 15 16 14 17 18 19 16 21 9 23 5 25 1 27
REMARK H PARENT 14 18 18 20 16 22 9 24 5 26 1 28
REMARK INDEX MAP 1 1 2 2 4 3 7 4 8 5 11 6 12 7 14 8 15 9 16 10 3 11 5 12 6 13
REMARK INDEX MAP 9 14 10 15 13 16 18 17 30 18 19 19 31 20 21 21 33 22 17 23
REMARK INDEX MAP 29 24 20 25 32 26 22 27 34 28
REMARK Flexibility Score: inf
ROOT
ATOM      1  C   UNL     1     -10.904  12.192  67.818  1.00  0.00     0.024 A 
ATOM      2  C   UNL     1      -9.738  11.405  67.855  1.00  0.00     0.125 A 
ATOM      3  C   UNL     1      -9.593  10.356  68.892  1.00  0.00     0.058 A 
ATOM      4  C   UNL     1     -11.850  10.961  69.770  1.00  0.00    -0.010 A 
ATOM      5  C   UNL     1     -10.619  10.142  69.827  1.00  0.00     0.027 A 
ATOM      6  C   UNL     1     -12.933  10.701  70.747  1.00  0.00     0.054 A 
ATOM      7  C   UNL     1     -10.480   9.102  70.870  1.00  0.00     0.128 A 
ATOM      8  C   UNL     1     -12.784   9.679  71.713  1.00  0.00     0.121 A 
ATOM      9  C   UNL     1     -11.542   8.869  71.763  1.00  0.00     0.091 A 
ATOM     10  O   UNL     1     -11.953  11.982  68.770  1.00  0.00     0.020 A 
ENDROOT
BRANCH   1  11
ATOM     11  C   UNL     1     -11.062  13.253  66.787  1.00  0.00    -0.007 A 
ATOM     12  C   UNL     1     -10.542  14.615  67.050  1.00  0.00     0.058 A 
ATOM     13  C   UNL     1     -11.703  12.972  65.564  1.00  0.00     0.058 A 
ATOM     14  C   UNL     1     -10.674  15.625  66.088  1.00  0.00     0.163 A 
ATOM     15  C   UNL     1     -11.855  14.041  64.541  1.00  0.00     0.163 A 
ATOM     16  C   UNL     1     -11.345  15.336  64.795  1.00  0.00     0.201 A 
BRANCH  14  17
ATOM     17  O   UNL     1     -10.176  16.898  66.358  1.00  0.00    -0.503 OA
ATOM     18  H   UNL     1      -9.303  17.001  66.684  1.00  0.00     0.292 HD
ENDBRANCH  14  17
BRANCH  15  19
ATOM     19  O   UNL     1     -12.498  13.794  63.325  1.00  0.00    -0.503 OA
ATOM     20  H   UNL     1     -12.357  14.366  62.596  1.00  0.00     0.292 HD
ENDBRANCH  15  19
BRANCH  16  21
ATOM     21  O   UNL     1     -11.465  16.354  63.844  1.00  0.00    -0.501 OA
ATOM     22  H   UNL     1     -11.848  16.172  63.009  1.00  0.00     0.292 HD
ENDBRANCH  16  21
ENDBRANCH   1  11
BRANCH   2  23
ATOM     23  O   UNL     1      -8.713  11.585  66.926  1.00  0.00    -0.506 OA
ATOM     24  H   UNL     1      -7.933  11.069  66.983  1.00  0.00     0.292 HD
ENDBRANCH   2  23
BRANCH   7  25
ATOM     25  O   UNL     1      -9.299   8.369  70.961  1.00  0.00    -0.506 OA
ATOM     26  H   UNL     1      -8.832   8.134  70.184  1.00  0.00     0.292 HD
ENDBRANCH   7  25
BRANCH   8  27
ATOM     27  O   UNL     1     -13.788   9.409  72.644  1.00  0.00    -0.507 OA
ATOM     28  H   UNL     1     -14.184  10.111  73.122  1.00  0.00     0.292 HD
ENDBRANCH   8  27
TORSDOF 7

ENDMDL
MODEL 2
REMARK VINA RESULT:    -7.184      0.309      1.851
REMARK INTER + INTRA:          -9.234
REMARK INTER:                  -8.870
REMARK INTRA:                  -0.364
REMARK UNBOUND:                -0.370
REMARK SMILES Oc1cc(O)c2cc(O)c(-c3cc(O)c(O)c(O)c3)cc2c1
REMARK SMILES IDX 10 1 8 2 7 3 21 4 6 5 22 6 4 7 2 8 3 9 20 10 11 11 12 12
REMARK SMILES IDX 19 13 13 14 17 15 15 16 14 17 18 19 16 21 9 23 5 25 1 27
REMARK H PARENT 14 18 18 20 16 22 9 24 5 26 1 28
REMARK INDEX MAP 1 1 2 2 4 3 7 4 8 5 11 6 12 7 14 8 15 9 16 10 3 11 5 12 6 13
REMARK INDEX MAP 9 14 10 15 13 16 18 17 30 18 19 19 31 20 21 21 33 22 17 23
REMARK INDEX MAP 29 24 20 25 32 26 22 27 34 28
REMARK Flexibility Score: inf
ROOT
ATOM      1  C   UNL     1     -10.953  12.030  67.921  1.00  0.00     0.024 A 
ATOM      2  C   UNL     1      -9.746  11.308  67.969  1.00  0.00     0.125 A 
ATOM      3  C   UNL     1      -9.544  10.287  69.025  1.00  0.00     0.058 A 
ATOM      4  C   UNL     1     -11.829  10.785  69.896  1.00  0.00    -0.010 A 
ATOM      5  C   UNL     1     -10.556  10.034  69.965  1.00  0.00     0.027 A 
ATOM      6  C   UNL     1     -12.896  10.484  70.879  1.00  0.00     0.054 A 
ATOM      7  C   UNL     1     -10.360   9.021  71.026  1.00  0.00     0.128 A 
ATOM      8  C   UNL     1     -12.691   9.489  71.862  1.00  0.00     0.121 A 
ATOM      9  C   UNL     1     -11.408   8.748  71.925  1.00  0.00     0.091 A 
ATOM     10  O   UNL     1     -11.988  11.781  68.878  1.00  0.00     0.020 A 
ENDROOT
BRANCH   1  11
ATOM     11  C   UNL     1     -11.168  13.063  66.872  1.00  0.00    -0.007 A 
ATOM     12  C   UNL     1     -11.854  12.695  65.611  1.00  0.00     0.058 A 
ATOM     13  C   UNL     1     -10.725  14.386  67.068  1.00  0.00     0.058 A 
ATOM     14  C   UNL     1     -12.074  13.655  64.614  1.00  0.00     0.163 A 
ATOM     15  C   UNL     1     -10.946  15.409  66.011  1.00  0.00     0.163 A 
ATOM     16  C   UNL     1     -11.613  15.053  64.815  1.00  0.00     0.201 A 
BRANCH  14  17
ATOM     17  O   UNL     1     -12.721  13.286  63.437  1.00  0.00    -0.503 OA
ATOM     18  H   UNL     1     -13.629  13.487  63.318  1.00  0.00     0.292 HD
ENDBRANCH  14  17
BRANCH  15  19
ATOM     19  O   UNL     1     -10.506  16.725  66.173  1.00  0.00    -0.503 OA
ATOM     20  H   UNL     1     -10.365  17.268  65.422  1.00  0.00     0.292 HD
ENDBRANCH  15  19
BRANCH  16  21
ATOM     21  O   UNL     1     -11.843  15.999  63.813  1.00  0.00    -0.501 OA
ATOM     22  H   UNL     1     -11.137  16.288  63.269  1.00  0.00     0.292 HD
ENDBRANCH  16  21
ENDBRANCH   1  11
BRANCH   2  23
ATOM     23  O   UNL     1      -8.733  11.526  67.035  1.00  0.00    -0.506 OA
ATOM     24  H   UNL     1      -7.873  11.186  67.189  1.00  0.00     0.292 HD
ENDBRANCH   2  23
BRANCH   7  25
ATOM     25  O   UNL     1      -9.142   8.355  71.128  1.00  0.00    -0.506 OA
ATOM     26  H   UNL     1      -8.498   8.448  70.453  1.00  0.00     0.292 HD
ENDBRANCH   7  25
BRANCH   8  27
ATOM     27  O   UNL     1     -13.679   9.183  72.800  1.00  0.00    -0.507 OA
ATOM     28  H   UNL     1     -13.791   9.725  73.556  1.00  0.00     0.292 HD
ENDBRANCH   8  27
TORSDOF 7

ENDMDL
MODEL 3
REMARK VINA RESULT:    -6.795      1.885      7.688
REMARK INTER + INTRA:          -8.754
REMARK INTER:                  -8.594
REMARK INTRA:                  -0.160
REMARK UNBOUND:                -0.370
REMARK SMILES Oc1cc(O)c2cc(O)c(-c3cc(O)c(O)c(O)c3)cc2c1
REMARK SMILES IDX 10 1 8 2 7 3 21 4 6 5 22 6 4 7 2 8 3 9 20 10 11 11 12 12
REMARK SMILES IDX 19 13 13 14 17 15 15 16 14 17 18 19 16 21 9 23 5 25 1 27
REMARK H PARENT 14 18 18 20 16 22 9 24 5 26 1 28
REMARK INDEX MAP 1 1 2 2 4 3 7 4 8 5 11 6 12 7 14 8 15 9 16 10 3 11 5 12 6 13
REMARK INDEX MAP 9 14 10 15 13 16 18 17 30 18 19 19 31 20 21 21 33 22 17 23
REMARK INDEX MAP 29 24 20 25 32 26 22 27 34 28
REMARK Flexibility Score: inf
ROOT
ATOM      1  C   UNL     1     -11.291  10.870  69.112  1.00  0.00     0.024 A 
ATOM      2  C   UNL     1     -11.602  12.233  69.275  1.00  0.00     0.125 A 
ATOM      3  C   UNL     1     -11.642  13.122  68.089  1.00  0.00     0.058 A 
ATOM      4  C   UNL     1     -11.076  11.166  66.646  1.00  0.00    -0.010 A 
ATOM      5  C   UNL     1     -11.383  12.604  66.809  1.00  0.00     0.027 A 
ATOM      6  C   UNL     1     -10.833  10.633  65.284  1.00  0.00     0.054 A 
ATOM      7  C   UNL     1     -11.415  13.486  65.622  1.00  0.00     0.128 A 
ATOM      8  C   UNL     1     -10.901  11.494  64.165  1.00  0.00     0.121 A 
ATOM      9  C   UNL     1     -11.204  12.935  64.344  1.00  0.00     0.091 A 
ATOM     10  O   UNL     1     -11.022  10.335  67.812  1.00  0.00     0.020 A 
ENDROOT
BRANCH   1  11
ATOM     11  C   UNL     1     -11.240   9.966  70.293  1.00  0.00    -0.007 A 
ATOM     12  C   UNL     1     -12.457   9.762  71.113  1.00  0.00     0.058 A 
ATOM     13  C   UNL     1     -10.044   9.303  70.636  1.00  0.00     0.058 A 
ATOM     14  C   UNL     1     -12.431   8.908  72.224  1.00  0.00     0.163 A 
ATOM     15  C   UNL     1     -10.006   8.401  71.819  1.00  0.00     0.163 A 
ATOM     16  C   UNL     1     -11.175   8.203  72.590  1.00  0.00     0.201 A 
BRANCH  14  17
ATOM     17  O   UNL     1     -13.587   8.731  72.981  1.00  0.00    -0.503 OA
ATOM     18  H   UNL     1     -13.572   8.181  73.740  1.00  0.00     0.292 HD
ENDBRANCH  14  17
BRANCH  15  19
ATOM     19  O   UNL     1      -8.831   7.742  72.189  1.00  0.00    -0.503 OA
ATOM     20  H   UNL     1      -8.015   7.983  71.796  1.00  0.00     0.292 HD
ENDBRANCH  15  19
BRANCH  16  21
ATOM     21  O   UNL     1     -11.167   7.351  73.698  1.00  0.00    -0.501 OA
ATOM     22  H   UNL     1     -11.346   7.692  74.553  1.00  0.00     0.292 HD
ENDBRANCH  16  21
ENDBRANCH   1  11
BRANCH   2  23
ATOM     23  O   UNL     1     -11.882  12.767  70.532  1.00  0.00    -0.506 OA
ATOM     24  H   UNL     1     -12.051  12.196  71.256  1.00  0.00     0.292 HD
ENDBRANCH   2  23
BRANCH   7  25
ATOM     25  O   UNL     1     -11.647  14.850  65.780  1.00  0.00    -0.506 OA
ATOM     26  H   UNL     1     -12.384  15.145  66.279  1.00  0.00     0.292 HD
ENDBRANCH   7  25
BRANCH   8  27
ATOM     27  O   UNL     1     -10.679  11.020  62.871  1.00  0.00    -0.507 OA
ATOM     28  H   UNL     1      -9.963  10.441  62.702  1.00  0.00     0.292 HD
ENDBRANCH   8  27
TORSDOF 7

ENDMDL
MODEL 4
REMARK VINA RESULT:    -6.495      1.542      7.431
REMARK INTER + INTRA:          -8.383
REMARK INTER:                  -8.170
REMARK INTRA:                  -0.213
REMARK UNBOUND:                -0.370
REMARK SMILES Oc1cc(O)c2cc(O)c(-c3cc(O)c(O)c(O)c3)cc2c1
REMARK SMILES IDX 10 1 8 2 7 3 21 4 6 5 22 6 4 7 2 8 3 9 20 10 11 11 12 12
REMARK SMILES IDX 19 13 13 14 17 15 15 16 14 17 18 19 16 21 9 23 5 25 1 27
REMARK H PARENT 14 18 18 20 16 22 9 24 5 26 1 28
REMARK INDEX MAP 1 1 2 2 4 3 7 4 8 5 11 6 12 7 14 8 15 9 16 10 3 11 5 12 6 13
REMARK INDEX MAP 9 14 10 15 13 16 18 17 30 18 19 19 31 20 21 21 33 22 17 23
REMARK INDEX MAP 29 24 20 25 32 26 22 27 34 28
REMARK Flexibility Score: inf
ROOT
ATOM      1  C   UNL     1     -11.365  11.218  69.254  1.00  0.00     0.024 A 
ATOM      2  C   UNL     1     -11.274  10.798  67.913  1.00  0.00     0.125 A 
ATOM      3  C   UNL     1     -11.203  11.809  66.832  1.00  0.00     0.058 A 
ATOM      4  C   UNL     1     -11.292  13.611  68.557  1.00  0.00    -0.010 A 
ATOM      5  C   UNL     1     -11.215  13.179  67.144  1.00  0.00     0.027 A 
ATOM      6  C   UNL     1     -11.275  15.060  68.868  1.00  0.00     0.054 A 
ATOM      7  C   UNL     1     -11.151  14.194  66.070  1.00  0.00     0.128 A 
ATOM      8  C   UNL     1     -11.182  16.006  67.821  1.00  0.00     0.121 A 
ATOM      9  C   UNL     1     -11.111  15.560  66.409  1.00  0.00     0.091 A 
ATOM     10  O   UNL     1     -11.381  12.612  69.580  1.00  0.00     0.020 A 
ENDROOT
BRANCH   1  11
ATOM     11  C   UNL     1     -11.443  10.216  70.351  1.00  0.00    -0.007 A 
ATOM     12  C   UNL     1     -10.287   9.328  70.617  1.00  0.00     0.058 A 
ATOM     13  C   UNL     1     -12.607  10.104  71.137  1.00  0.00     0.058 A 
ATOM     14  C   UNL     1     -10.339   8.383  71.651  1.00  0.00     0.163 A 
ATOM     15  C   UNL     1     -12.674   9.098  72.230  1.00  0.00     0.163 A 
ATOM     16  C   UNL     1     -11.561   8.262  72.486  1.00  0.00     0.201 A 
BRANCH  14  17
ATOM     17  O   UNL     1      -9.239   7.560  71.883  1.00  0.00    -0.503 OA
ATOM     18  H   UNL     1      -9.356   6.633  71.965  1.00  0.00     0.292 HD
ENDBRANCH  14  17
BRANCH  15  19
ATOM     19  O   UNL     1     -13.820   8.957  73.016  1.00  0.00    -0.503 OA
ATOM     20  H   UNL     1     -14.457   8.303  72.803  1.00  0.00     0.292 HD
ENDBRANCH  15  19
BRANCH  16  21
ATOM     21  O   UNL     1     -11.595   7.318  73.516  1.00  0.00    -0.501 OA
ATOM     22  H   UNL     1     -12.282   7.342  74.152  1.00  0.00     0.292 HD
ENDBRANCH  16  21
ENDBRANCH   1  11
BRANCH   2  23
ATOM     23  O   UNL     1     -11.240   9.445  67.579  1.00  0.00    -0.506 OA
ATOM     24  H   UNL     1     -11.779   9.121  66.883  1.00  0.00     0.292 HD
ENDBRANCH   2  23
BRANCH   7  25
ATOM     25  O   UNL     1     -11.137  13.790  64.737  1.00  0.00    -0.506 OA
ATOM     26  H   UNL     1     -10.873  14.391  64.068  1.00  0.00     0.292 HD
ENDBRANCH   7  25
BRANCH   8  27
ATOM     27  O   UNL     1     -11.161  17.377  68.084  1.00  0.00    -0.507 OA
ATOM     28  H   UNL     1     -11.594  17.715  68.843  1.00  0.00     0.292 HD
ENDBRANCH   8  27
TORSDOF 7

ENDMDL
MODEL 5
REMARK VINA RESULT:    -6.289      3.938      7.732
REMARK INTER + INTRA:          -8.129
REMARK INTER:                  -7.760
REMARK INTRA:                  -0.370
REMARK UNBOUND:                -0.370
REMARK SMILES Oc1cc(O)c2cc(O)c(-c3cc(O)c(O)c(O)c3)cc2c1
REMARK SMILES IDX 10 1 8 2 7 3 21 4 6 5 22 6 4 7 2 8 3 9 20 10 11 11 12 12
REMARK SMILES IDX 19 13 13 14 17 15 15 16 14 17 18 19 16 21 9 23 5 25 1 27
REMARK H PARENT 14 18 18 20 16 22 9 24 5 26 1 28
REMARK INDEX MAP 1 1 2 2 4 3 7 4 8 5 11 6 12 7 14 8 15 9 16 10 3 11 5 12 6 13
REMARK INDEX MAP 9 14 10 15 13 16 18 17 30 18 19 19 31 20 21 21 33 22 17 23
REMARK INDEX MAP 29 24 20 25 32 26 22 27 34 28
REMARK Flexibility Score: inf
ROOT
ATOM      1  C   UNL     1      -9.275  16.302  67.057  1.00  0.00     0.024 A 
ATOM      2  C   UNL     1      -9.683  17.345  67.909  1.00  0.00     0.125 A 
ATOM      3  C   UNL     1      -8.673  18.277  68.464  1.00  0.00     0.058 A 
ATOM      4  C   UNL     1      -6.898  17.038  67.221  1.00  0.00    -0.010 A 
ATOM      5  C   UNL     1      -7.316  18.126  68.133  1.00  0.00     0.027 A 
ATOM      6  C   UNL     1      -5.466  16.913  66.861  1.00  0.00     0.054 A 
ATOM      7  C   UNL     1      -6.300  19.047  68.688  1.00  0.00     0.128 A 
ATOM      8  C   UNL     1      -4.523  17.828  67.383  1.00  0.00     0.121 A 
ATOM      9  C   UNL     1      -4.955  18.910  68.300  1.00  0.00     0.091 A 
ATOM     10  O   UNL     1      -7.894  16.140  66.717  1.00  0.00     0.020 A 
ENDROOT
BRANCH   1  11
ATOM     11  C   UNL     1     -10.276  15.355  66.496  1.00  0.00    -0.007 A 
ATOM     12  C   UNL     1     -10.645  14.140  67.260  1.00  0.00     0.058 A 
ATOM     13  C   UNL     1     -10.875  15.605  65.245  1.00  0.00     0.058 A 
ATOM     14  C   UNL     1     -11.591  13.241  66.752  1.00  0.00     0.163 A 
ATOM     15  C   UNL     1     -11.875  14.650  64.695  1.00  0.00     0.163 A 
ATOM     16  C   UNL     1     -12.230  13.499  65.436  1.00  0.00     0.201 A 
BRANCH  14  17
ATOM     17  O   UNL     1     -11.922  12.105  67.489  1.00  0.00    -0.503 OA
ATOM     18  H   UNL     1     -12.820  11.916  67.681  1.00  0.00     0.292 HD
ENDBRANCH  14  17
BRANCH  15  19
ATOM     19  O   UNL     1     -12.474  14.866  63.452  1.00  0.00    -0.503 OA
ATOM     20  H   UNL     1     -12.540  14.163  62.835  1.00  0.00     0.292 HD
ENDBRANCH  15  19
BRANCH  16  21
ATOM     21  O   UNL     1     -13.175  12.594  64.946  1.00  0.00    -0.501 OA
ATOM     22  H   UNL     1     -13.370  11.813  65.426  1.00  0.00     0.292 HD
ENDBRANCH  16  21
ENDBRANCH   1  11
BRANCH   2  23
ATOM     23  O   UNL     1     -11.026  17.528  68.238  1.00  0.00    -0.506 OA
ATOM     24  H   UNL     1     -11.558  18.110  67.730  1.00  0.00     0.292 HD
ENDBRANCH   2  23
BRANCH   7  25
ATOM     25  O   UNL     1      -6.684  20.036  69.591  1.00  0.00    -0.506 OA
ATOM     26  H   UNL     1      -7.535  20.423  69.528  1.00  0.00     0.292 HD
ENDBRANCH   7  25
BRANCH   8  27
ATOM     27  O   UNL     1      -3.168  17.736  67.058  1.00  0.00    -0.507 OA
ATOM     28  H   UNL     1      -2.766  16.895  66.961  1.00  0.00     0.292 HD
ENDBRANCH   8  27
TORSDOF 7

ENDMDL
MODEL 6
REMARK VINA RESULT:    -6.260      3.482      5.035
REMARK INTER + INTRA:          -8.094
REMARK INTER:                  -7.725
REMARK INTRA:                  -0.369
REMARK UNBOUND:                -0.370
REMARK SMILES Oc1cc(O)c2cc(O)c(-c3cc(O)c(O)c(O)c3)cc2c1
REMARK SMILES IDX 10 1 8 2 7 3 21 4 6 5 22 6 4 7 2 8 3 9 20 10 11 11 12 12
REMARK SMILES IDX 19 13 13 14 17 15 15 16 14 17 18 19 16 21 9 23 5 25 1 27
REMARK H PARENT 14 18 18 20 16 22 9 24 5 26 1 28
REMARK INDEX MAP 1 1 2 2 4 3 7 4 8 5 11 6 12 7 14 8 15 9 16 10 3 11 5 12 6 13
REMARK INDEX MAP 9 14 10 15 13 16 18 17 30 18 19 19 31 20 21 21 33 22 17 23
REMARK INDEX MAP 29 24 20 25 32 26 22 27 34 28
REMARK Flexibility Score: inf
ROOT
ATOM      1  C   UNL     1     -10.023  16.187  68.507  1.00  0.00     0.024 A 
ATOM      2  C   UNL     1      -9.761  15.015  67.774  1.00  0.00     0.125 A 
ATOM      3  C   UNL     1     -10.381  13.734  68.192  1.00  0.00     0.058 A 
ATOM      4  C   UNL     1     -11.521  14.935  70.059  1.00  0.00    -0.010 A 
ATOM      5  C   UNL     1     -11.235  13.694  69.306  1.00  0.00     0.027 A 
ATOM      6  C   UNL     1     -12.446  14.878  71.215  1.00  0.00     0.054 A 
ATOM      7  C   UNL     1     -11.852  12.419  69.733  1.00  0.00     0.128 A 
ATOM      8  C   UNL     1     -13.046  13.650  71.580  1.00  0.00     0.121 A 
ATOM      9  C   UNL     1     -12.746  12.413  70.820  1.00  0.00     0.091 A 
ATOM     10  O   UNL     1     -10.890  16.154  69.646  1.00  0.00     0.020 A 
ENDROOT
BRANCH   1  11
ATOM     11  C   UNL     1      -9.404  17.478  68.105  1.00  0.00    -0.007 A 
ATOM     12  C   UNL     1     -10.086  18.341  67.111  1.00  0.00     0.058 A 
ATOM     13  C   UNL     1      -8.175  17.887  68.661  1.00  0.00     0.058 A 
ATOM     14  C   UNL     1      -9.522  19.564  66.726  1.00  0.00     0.163 A 
ATOM     15  C   UNL     1      -7.566  19.181  68.250  1.00  0.00     0.163 A 
ATOM     16  C   UNL     1      -8.229  20.004  67.310  1.00  0.00     0.201 A 
BRANCH  14  17
ATOM     17  O   UNL     1     -10.182  20.359  65.790  1.00  0.00    -0.503 OA
ATOM     18  H   UNL     1     -10.138  20.145  64.878  1.00  0.00     0.292 HD
ENDBRANCH  14  17
BRANCH  15  19
ATOM     19  O   UNL     1      -6.342  19.604  68.775  1.00  0.00    -0.503 OA
ATOM     20  H   UNL     1      -5.809  20.206  68.294  1.00  0.00     0.292 HD
ENDBRANCH  15  19
BRANCH  16  21
ATOM     21  O   UNL     1      -7.683  21.229  66.918  1.00  0.00    -0.501 OA
ATOM     22  H   UNL     1      -7.144  21.279  66.153  1.00  0.00     0.292 HD
ENDBRANCH  16  21
ENDBRANCH   1  11
BRANCH   2  23
ATOM     23  O   UNL     1      -8.932  15.032  66.653  1.00  0.00    -0.506 OA
ATOM     24  H   UNL     1      -8.284  14.364  66.539  1.00  0.00     0.292 HD
ENDBRANCH   2  23
BRANCH   7  25
ATOM     25  O   UNL     1     -11.539  11.240  69.060  1.00  0.00    -0.506 OA
ATOM     26  H   UNL     1     -12.029  10.989  68.303  1.00  0.00     0.292 HD
ENDBRANCH   7  25
BRANCH   8  27
ATOM     27  O   UNL     1     -13.924  13.567  72.662  1.00  0.00    -0.507 OA
ATOM     28  H   UNL     1     -14.083  14.320  73.196  1.00  0.00     0.292 HD
ENDBRANCH   8  27
TORSDOF 7

ENDMDL
MODEL 7
REMARK VINA RESULT:    -6.076      1.542      7.501
REMARK INTER + INTRA:          -7.867
REMARK INTER:                  -7.579
REMARK INTRA:                  -0.288
REMARK UNBOUND:                -0.370
REMARK SMILES Oc1cc(O)c2cc(O)c(-c3cc(O)c(O)c(O)c3)cc2c1
REMARK SMILES IDX 10 1 8 2 7 3 21 4 6 5 22 6 4 7 2 8 3 9 20 10 11 11 12 12
REMARK SMILES IDX 19 13 13 14 17 15 15 16 14 17 18 19 16 21 9 23 5 25 1 27
REMARK H PARENT 14 18 18 20 16 22 9 24 5 26 1 28
REMARK INDEX MAP 1 1 2 2 4 3 7 4 8 5 11 6 12 7 14 8 15 9 16 10 3 11 5 12 6 13
REMARK INDEX MAP 9 14 10 15 13 16 18 17 30 18 19 19 31 20 21 21 33 22 17 23
REMARK INDEX MAP 29 24 20 25 32 26 22 27 34 28
REMARK Flexibility Score: inf
ROOT
ATOM      1  C   UNL     1     -11.034  10.747  68.997  1.00  0.00     0.024 A 
ATOM      2  C   UNL     1     -11.055  10.184  67.707  1.00  0.00     0.125 A 
ATOM      3  C   UNL     1     -11.029  11.070  66.519  1.00  0.00     0.058 A 
ATOM      4  C   UNL     1     -10.932  13.048  68.039  1.00  0.00    -0.010 A 
ATOM      5  C   UNL     1     -10.973  12.465  66.679  1.00  0.00     0.027 A 
ATOM      6  C   UNL     1     -10.844  14.519  68.187  1.00  0.00     0.054 A 
ATOM      7  C   UNL     1     -10.954  13.356  65.499  1.00  0.00     0.128 A 
ATOM      8  C   UNL     1     -10.796  15.344  67.040  1.00  0.00     0.121 A 
ATOM      9  C   UNL     1     -10.844  14.747  65.683  1.00  0.00     0.091 A 
ATOM     10  O   UNL     1     -10.980  12.168  69.169  1.00  0.00     0.020 A 
ENDROOT
BRANCH   1  11
ATOM     11  C   UNL     1     -11.065   9.872  70.199  1.00  0.00    -0.007 A 
ATOM     12  C   UNL     1     -12.310   9.765  70.996  1.00  0.00     0.058 A 
ATOM     13  C   UNL     1      -9.922   9.145  70.585  1.00  0.00     0.058 A 
ATOM     14  C   UNL     1     -12.362   8.940  72.127  1.00  0.00     0.163 A 
ATOM     15  C   UNL     1      -9.966   8.273  71.790  1.00  0.00     0.163 A 
ATOM     16  C   UNL     1     -11.161   8.167  72.539  1.00  0.00     0.201 A 
BRANCH  14  17
ATOM     17  O   UNL     1     -13.543   8.855  72.861  1.00  0.00    -0.503 OA
ATOM     18  H   UNL     1     -13.664   8.159  73.477  1.00  0.00     0.292 HD
ENDBRANCH  14  17
BRANCH  15  19
ATOM     19  O   UNL     1      -8.843   7.551  72.203  1.00  0.00    -0.503 OA
ATOM     20  H   UNL     1      -8.074   8.005  72.489  1.00  0.00     0.292 HD
ENDBRANCH  15  19
BRANCH  16  21
ATOM     21  O   UNL     1     -11.231   7.346  73.667  1.00  0.00    -0.501 OA
ATOM     22  H   UNL     1     -10.864   7.633  74.480  1.00  0.00     0.292 HD
ENDBRANCH  16  21
ENDBRANCH   1  11
BRANCH   2  23
ATOM     23  O   UNL     1     -11.091   8.802  67.521  1.00  0.00    -0.506 OA
ATOM     24  H   UNL     1     -10.462   8.255  67.950  1.00  0.00     0.292 HD
ENDBRANCH   2  23
BRANCH   7  25
ATOM     25  O   UNL     1     -11.050  12.812  64.220  1.00  0.00    -0.506 OA
ATOM     26  H   UNL     1     -10.653  13.250  63.493  1.00  0.00     0.292 HD
ENDBRANCH   7  25
BRANCH   8  27
ATOM     27  O   UNL     1     -10.710  16.733  67.149  1.00  0.00    -0.507 OA
ATOM     28  H   UNL     1     -10.537  17.253  66.389  1.00  0.00     0.292 HD
ENDBRANCH   8  27
TORSDOF 7

ENDMDL
MODEL 8
REMARK VINA RESULT:    -6.047      2.100      3.366
REMARK INTER + INTRA:          -7.831
REMARK INTER:                  -7.489
REMARK INTRA:                  -0.342
REMARK UNBOUND:                -0.370
REMARK SMILES Oc1cc(O)c2cc(O)c(-c3cc(O)c(O)c(O)c3)cc2c1
REMARK SMILES IDX 10 1 8 2 7 3 21 4 6 5 22 6 4 7 2 8 3 9 20 10 11 11 12 12
REMARK SMILES IDX 19 13 13 14 17 15 15 16 14 17 18 19 16 21 9 23 5 25 1 27
REMARK H PARENT 14 18 18 20 16 22 9 24 5 26 1 28
REMARK INDEX MAP 1 1 2 2 4 3 7 4 8 5 11 6 12 7 14 8 15 9 16 10 3 11 5 12 6 13
REMARK INDEX MAP 9 14 10 15 13 16 18 17 30 18 19 19 31 20 21 21 33 22 17 23
REMARK INDEX MAP 29 24 20 25 32 26 22 27 34 28
REMARK Flexibility Score: inf
ROOT
ATOM      1  C   UNL     1     -11.050  10.972  68.508  1.00  0.00     0.024 A 
ATOM      2  C   UNL     1     -11.497  11.274  69.807  1.00  0.00     0.125 A 
ATOM      3  C   UNL     1     -11.638  10.186  70.805  1.00  0.00     0.058 A 
ATOM      4  C   UNL     1     -10.828   8.559  69.096  1.00  0.00    -0.010 A 
ATOM      5  C   UNL     1     -11.316   8.864  70.459  1.00  0.00     0.027 A 
ATOM      6  C   UNL     1     -10.466   7.162  68.758  1.00  0.00     0.054 A 
ATOM      7  C   UNL     1     -11.460   7.772  71.447  1.00  0.00     0.128 A 
ATOM      8  C   UNL     1     -10.585   6.145  69.733  1.00  0.00     0.121 A 
ATOM      9  C   UNL     1     -11.081   6.464  71.093  1.00  0.00     0.091 A 
ATOM     10  O   UNL     1     -10.723   9.626  68.145  1.00  0.00     0.020 A 
ENDROOT
BRANCH   1  11
ATOM     11  C   UNL     1     -10.909  12.051  67.493  1.00  0.00    -0.007 A 
ATOM     12  C   UNL     1     -11.989  12.272  66.503  1.00  0.00     0.058 A 
ATOM     13  C   UNL     1      -9.757  12.863  67.466  1.00  0.00     0.058 A 
ATOM     14  C   UNL     1     -11.878  13.288  65.544  1.00  0.00     0.163 A 
ATOM     15  C   UNL     1      -9.628  13.938  66.446  1.00  0.00     0.163 A 
ATOM     16  C   UNL     1     -10.669  14.150  65.512  1.00  0.00     0.201 A 
BRANCH  14  17
ATOM     17  O   UNL     1     -12.907  13.477  64.624  1.00  0.00    -0.503 OA
ATOM     18  H   UNL     1     -13.669  13.966  64.866  1.00  0.00     0.292 HD
ENDBRANCH  14  17
BRANCH  15  19
ATOM     19  O   UNL     1      -8.492  14.749  66.388  1.00  0.00    -0.503 OA
ATOM     20  H   UNL     1      -7.880  14.647  65.686  1.00  0.00     0.292 HD
ENDBRANCH  15  19
BRANCH  16  21
ATOM     21  O   UNL     1     -10.576  15.162  64.552  1.00  0.00    -0.501 OA
ATOM     22  H   UNL     1     -10.286  16.017  64.799  1.00  0.00     0.292 HD
ENDBRANCH  16  21
ENDBRANCH   1  11
BRANCH   2  23
ATOM     23  O   UNL     1     -11.805  12.581  70.182  1.00  0.00    -0.506 OA
ATOM     24  H   UNL     1     -11.362  13.301  69.777  1.00  0.00     0.292 HD
ENDBRANCH   2  23
BRANCH   7  25
ATOM     25  O   UNL     1     -11.974   8.049  72.712  1.00  0.00    -0.506 OA
ATOM     26  H   UNL     1     -11.557   7.697  73.474  1.00  0.00     0.292 HD
ENDBRANCH   7  25
BRANCH   8  27
ATOM     27  O   UNL     1     -10.249   4.821  69.444  1.00  0.00    -0.507 OA
ATOM     28  H   UNL     1     -10.209   4.532  68.553  1.00  0.00     0.292 HD
ENDBRANCH   8  27
TORSDOF 7

ENDMDL
MODEL 9
REMARK VINA RESULT:    -6.018      4.993      8.650
REMARK INTER + INTRA:          -7.795
REMARK INTER:                  -7.465
REMARK INTRA:                  -0.330
REMARK UNBOUND:                -0.370
REMARK SMILES Oc1cc(O)c2cc(O)c(-c3cc(O)c(O)c(O)c3)cc2c1
REMARK SMILES IDX 10 1 8 2 7 3 21 4 6 5 22 6 4 7 2 8 3 9 20 10 11 11 12 12
REMARK SMILES IDX 19 13 13 14 17 15 15 16 14 17 18 19 16 21 9 23 5 25 1 27
REMARK H PARENT 14 18 18 20 16 22 9 24 5 26 1 28
REMARK INDEX MAP 1 1 2 2 4 3 7 4 8 5 11 6 12 7 14 8 15 9 16 10 3 11 5 12 6 13
REMARK INDEX MAP 9 14 10 15 13 16 18 17 30 18 19 19 31 20 21 21 33 22 17 23
REMARK INDEX MAP 29 24 20 25 32 26 22 27 34 28
REMARK Flexibility Score: inf
ROOT
ATOM      1  C   UNL     1      -8.497  17.520  67.504  1.00  0.00     0.024 A 
ATOM      2  C   UNL     1      -8.594  18.719  66.772  1.00  0.00     0.125 A 
ATOM      3  C   UNL     1      -7.642  19.822  67.043  1.00  0.00     0.058 A 
ATOM      4  C   UNL     1      -6.535  18.399  68.768  1.00  0.00    -0.010 A 
ATOM      5  C   UNL     1      -6.641  19.669  68.016  1.00  0.00     0.027 A 
ATOM      6  C   UNL     1      -5.456  18.245  69.772  1.00  0.00     0.054 A 
ATOM      7  C   UNL     1      -5.692  20.768  68.297  1.00  0.00     0.128 A 
ATOM      8  C   UNL     1      -4.543  19.302  69.995  1.00  0.00     0.121 A 
ATOM      9  C   UNL     1      -4.665  20.572  69.239  1.00  0.00     0.091 A 
ATOM     10  O   UNL     1      -7.483  17.357  68.502  1.00  0.00     0.020 A 
ENDROOT
BRANCH   1  11
ATOM     11  C   UNL     1      -9.449  16.406  67.250  1.00  0.00    -0.007 A 
ATOM     12  C   UNL     1      -9.257  15.533  66.068  1.00  0.00     0.058 A 
ATOM     13  C   UNL     1     -10.531  16.174  68.123  1.00  0.00     0.058 A 
ATOM     14  C   UNL     1     -10.139  14.474  65.815  1.00  0.00     0.163 A 
ATOM     15  C   UNL     1     -11.476  15.057  67.857  1.00  0.00     0.163 A 
ATOM     16  C   UNL     1     -11.279  14.221  66.733  1.00  0.00     0.201 A 
BRANCH  14  17
ATOM     17  O   UNL     1      -9.938  13.666  64.698  1.00  0.00    -0.503 OA
ATOM     18  H   UNL     1      -9.504  14.011  63.942  1.00  0.00     0.292 HD
ENDBRANCH  14  17
BRANCH  15  19
ATOM     19  O   UNL     1     -12.564  14.813  68.699  1.00  0.00    -0.503 OA
ATOM     20  H   UNL     1     -13.380  14.525  68.338  1.00  0.00     0.292 HD
ENDBRANCH  15  19
BRANCH  16  21
ATOM     21  O   UNL     1     -12.146  13.157  66.469  1.00  0.00    -0.501 OA
ATOM     22  H   UNL     1     -13.009  13.325  66.146  1.00  0.00     0.292 HD
ENDBRANCH  16  21
ENDBRANCH   1  11
BRANCH   2  23
ATOM     23  O   UNL     1      -9.566  18.889  65.787  1.00  0.00    -0.506 OA
ATOM     24  H   UNL     1      -9.985  19.721  65.680  1.00  0.00     0.292 HD
ENDBRANCH   2  23
BRANCH   7  25
ATOM     25  O   UNL     1      -5.826  21.984  67.631  1.00  0.00    -0.506 OA
ATOM     26  H   UNL     1      -5.070  22.508  67.456  1.00  0.00     0.292 HD
ENDBRANCH   7  25
BRANCH   8  27
ATOM     27  O   UNL     1      -3.515  19.185  70.932  1.00  0.00    -0.507 OA
ATOM     28  H   UNL     1      -2.649  18.961  70.652  1.00  0.00     0.292 HD
ENDBRANCH   8  27
TORSDOF 7

ENDMDL
MODEL 10
REMARK VINA RESULT:    -5.742      4.238      7.456
REMARK INTER + INTRA:          -7.455
REMARK INTER:                  -7.216
REMARK INTRA:                  -0.238
REMARK UNBOUND:                -0.370
REMARK SMILES Oc1cc(O)c2cc(O)c(-c3cc(O)c(O)c(O)c3)cc2c1
REMARK SMILES IDX 10 1 8 2 7 3 21 4 6 5 22 6 4 7 2 8 3 9 20 10 11 11 12 12
REMARK SMILES IDX 19 13 13 14 17 15 15 16 14 17 18 19 16 21 9 23 5 25 1 27
REMARK H PARENT 14 18 18 20 16 22 9 24 5 26 1 28
REMARK INDEX MAP 1 1 2 2 4 3 7 4 8 5 11 6 12 7 14 8 15 9 16 10 3 11 5 12 6 13
REMARK INDEX MAP 9 14 10 15 13 16 18 17 30 18 19 19 31 20 21 21 33 22 17 23
REMARK INDEX MAP 29 24 20 25 32 26 22 27 34 28
REMARK Flexibility Score: inf
ROOT
ATOM      1  C   UNL     1      -9.015  16.412  67.526  1.00  0.00     0.024 A 
ATOM      2  C   UNL     1      -9.341  17.662  68.084  1.00  0.00     0.125 A 
ATOM      3  C   UNL     1      -8.297  18.448  68.784  1.00  0.00     0.058 A 
ATOM      4  C   UNL     1      -6.647  16.646  68.272  1.00  0.00    -0.010 A 
ATOM      5  C   UNL     1      -6.986  17.952  68.879  1.00  0.00     0.027 A 
ATOM      6  C   UNL     1      -5.252  16.153  68.359  1.00  0.00     0.054 A 
ATOM      7  C   UNL     1      -5.939  18.727  69.581  1.00  0.00     0.128 A 
ATOM      8  C   UNL     1      -4.267  16.931  69.009  1.00  0.00     0.121 A 
ATOM      9  C   UNL     1      -4.621  18.236  69.618  1.00  0.00     0.091 A 
ATOM     10  O   UNL     1      -7.682  15.898  67.622  1.00  0.00     0.020 A 
ENDROOT
BRANCH   1  11
ATOM     11  C   UNL     1     -10.053  15.608  66.826  1.00  0.00    -0.007 A 
ATOM     12  C   UNL     1     -10.612  16.091  65.542  1.00  0.00     0.058 A 
ATOM     13  C   UNL     1     -10.508  14.393  67.376  1.00  0.00     0.058 A 
ATOM     14  C   UNL     1     -11.585  15.344  64.864  1.00  0.00     0.163 A 
ATOM     15  C   UNL     1     -11.547  13.598  66.667  1.00  0.00     0.163 A 
ATOM     16  C   UNL     1     -12.067  14.060  65.435  1.00  0.00     0.201 A 
BRANCH  14  17
ATOM     17  O   UNL     1     -12.096  15.818  63.657  1.00  0.00    -0.503 OA
ATOM     18  H   UNL     1     -12.128  15.255  62.908  1.00  0.00     0.292 HD
ENDBRANCH  14  17
BRANCH  15  19
ATOM     19  O   UNL     1     -12.026  12.396  67.195  1.00  0.00    -0.503 OA
ATOM     20  H   UNL     1     -11.624  12.027  67.957  1.00  0.00     0.292 HD
ENDBRANCH  15  19
BRANCH  16  21
ATOM     21  O   UNL     1     -13.035  13.325  64.744  1.00  0.00    -0.501 OA
ATOM     22  H   UNL     1     -13.648  12.798  65.216  1.00  0.00     0.292 HD
ENDBRANCH  16  21
ENDBRANCH   1  11
BRANCH   2  23
ATOM     23  O   UNL     1     -10.630  18.184  67.986  1.00  0.00    -0.506 OA
ATOM     24  H   UNL     1     -10.764  19.112  68.020  1.00  0.00     0.292 HD
ENDBRANCH   2  23
BRANCH   7  25
ATOM     25  O   UNL     1      -6.269  19.930  70.202  1.00  0.00    -0.506 OA
ATOM     26  H   UNL     1      -5.662  20.337  70.787  1.00  0.00     0.292 HD
ENDBRANCH   7  25
BRANCH   8  27
ATOM     27  O   UNL     1      -2.944  16.494  69.103  1.00  0.00    -0.507 OA
ATOM     28  H   UNL     1      -2.698  15.666  68.741  1.00  0.00     0.292 HD
ENDBRANCH   8  27
TORSDOF 7

ENDMDL
