REMARK SMILES Oc1cc(O)c2cc(O)c(-c3cc(O)c(O)c(O)c3)cc2c1
REMARK SMILES IDX 10 1 8 2 7 3 21 4 6 5 22 6 4 7 2 8 3 9 20 10 11 11 12 12
REMARK SMILES IDX 19 13 13 14 17 15 15 16 14 17 18 19 16 21 9 23 5 25 1 27
REMARK H PARENT 14 18 18 20 16 22 9 24 5 26 1 28
REMARK INDEX MAP 1 1 2 2 4 3 7 4 8 5 11 6 12 7 14 8 15 9 16 10 3 11 5 12 6 13
REMARK INDEX MAP 9 14 10 15 13 16 18 17 30 18 19 19 31 20 21 21 33 22 17 23
REMARK INDEX MAP 29 24 20 25 32 26 22 27 34 28
REMARK Flexibility Score: inf
ROOT
ATOM      1  C   UNL     1       0.292   0.169  -0.067  1.00  0.00     0.024 A 
ATOM      2  C   UNL     1       1.393   0.052   0.802  1.00  0.00     0.125 A 
ATOM      3  C   UNL     1       1.287  -0.802   2.009  1.00  0.00     0.058 A 
ATOM      4  C   UNL     1      -1.048  -1.386   1.349  1.00  0.00    -0.010 A 
ATOM      5  C   UNL     1       0.098  -1.500   2.278  1.00  0.00     0.027 A 
ATOM      6  C   UNL     1      -2.284  -2.152   1.635  1.00  0.00     0.054 A 
ATOM      7  C   UNL     1      -0.018  -2.349   3.484  1.00  0.00     0.128 A 
ATOM      8  C   UNL     1      -2.354  -2.980   2.779  1.00  0.00     0.121 A 
ATOM      9  C   UNL     1      -1.200  -3.080   3.705  1.00  0.00     0.091 A 
ATOM     10  O   UNL     1      -0.925  -0.536   0.202  1.00  0.00     0.020 A 
ENDROOT
BRANCH   1  11
ATOM     11  C   UNL     1       0.380   1.027  -1.279  1.00  0.00    -0.007 A 
ATOM     12  C   UNL     1      -0.443   2.256  -1.369  1.00  0.00     0.058 A 
ATOM     13  C   UNL     1       1.239   0.680  -2.341  1.00  0.00     0.058 A 
ATOM     14  C   UNL     1      -0.368   3.081  -2.499  1.00  0.00     0.163 A 
ATOM     15  C   UNL     1       1.318   1.546  -3.548  1.00  0.00     0.163 A 
ATOM     16  C   UNL     1       0.538   2.724  -3.621  1.00  0.00     0.201 A 
BRANCH  14  17
ATOM     17  O   UNL     1      -1.151   4.232  -2.561  1.00  0.00    -0.503 OA
ATOM     18  H   UNL     1      -1.720   4.451  -1.849  1.00  0.00     0.292 HD
ENDBRANCH  14  17
BRANCH  15  19
ATOM     19  O   UNL     1       2.151   1.219  -4.621  1.00  0.00    -0.503 OA
ATOM     20  H   UNL     1       2.674   0.442  -4.588  1.00  0.00     0.292 HD
ENDBRANCH  15  19
BRANCH  16  21
ATOM     21  O   UNL     1       0.604   3.560  -4.739  1.00  0.00    -0.501 OA
ATOM     22  H   UNL     1       0.082   4.337  -4.775  1.00  0.00     0.292 HD
ENDBRANCH  16  21
ENDBRANCH   1  11
BRANCH   2  23
ATOM     23  O   UNL     1       2.591   0.719   0.547  1.00  0.00    -0.506 OA
ATOM     24  H   UNL     1       2.672   1.262  -0.213  1.00  0.00     0.292 HD
ENDBRANCH   2  23
BRANCH   7  25
ATOM     25  O   UNL     1       1.039  -2.412   4.389  1.00  0.00    -0.506 OA
ATOM     26  H   UNL     1       1.821  -1.921   4.231  1.00  0.00     0.292 HD
ENDBRANCH   7  25
BRANCH   8  27
ATOM     27  O   UNL     1      -3.504  -3.715   3.072  1.00  0.00    -0.507 OA
ATOM     28  H   UNL     1      -4.246  -3.670   2.502  1.00  0.00     0.292 HD
ENDBRANCH   8  27
TORSDOF 7

