MODEL 1
REMARK VINA RESULT:    -6.086      0.000      0.000
REMARK INTER + INTRA:          -7.128
REMARK INTER:                  -7.391
REMARK INTRA:                   0.262
REMARK UNBOUND:                 0.203
REMARK SMILES C[C@@]12CCC[C@@](C)(C(=O)O)[C@H]1CC[C@@]13C[C@@H](CC[C@@H]12)[C@](O)(CO)C3
REMARK SMILES IDX 4 1 5 2 6 3 11 4 2 5 3 6 12 7 13 8 14 9 19 10 15 11 16 12
REMARK SMILES IDX 17 13 18 14 1 15 7 16 24 17 20 18 8 19 9 20 10 21 22 23
REMARK SMILES IDX 23 24 21 26
REMARK H PARENT 10 22 23 25 21 27
REMARK INDEX MAP 1 1 2 2 3 3 4 4 5 5 6 6 7 7 8 8 9 9 10 10 11 11 12 12 13 13
REMARK INDEX MAP 14 14 15 15 17 16 18 17 19 18 16 19 23 20 22 21 55 22 20 23
REMARK INDEX MAP 24 24 56 25 21 26 54 27
REMARK Flexibility Score: inf
ROOT
ATOM      1  C   UNL     1      -9.544  19.748  66.512  1.00  0.00     0.002 C 
ATOM      2  C   UNL     1     -10.303  18.997  67.632  1.00  0.00     0.018 C 
ATOM      3  C   UNL     1      -9.650  17.623  67.986  1.00  0.00     0.068 C 
ATOM      4  C   UNL     1      -8.131  17.874  68.335  1.00  0.00     0.012 C 
ATOM      5  C   UNL     1      -7.286  18.616  67.232  1.00  0.00    -0.025 C 
ATOM      6  C   UNL     1      -8.055  19.942  66.907  1.00  0.00     0.007 C 
ATOM      7  C   UNL     1      -7.376  16.644  68.909  1.00  0.00     0.006 C 
ATOM      8  C   UNL     1      -5.934  16.977  69.399  1.00  0.00     0.007 C 
ATOM      9  C   UNL     1      -5.455  18.445  69.176  1.00  0.00    -0.023 C 
ATOM     10  C   UNL     1      -5.789  18.887  67.714  1.00  0.00     0.002 C 
ATOM     11  C   UNL     1      -3.917  18.458  69.402  1.00  0.00     0.013 C 
ATOM     12  C   UNL     1      -3.622  19.969  69.430  1.00  0.00     0.024 C 
ATOM     13  C   UNL     1      -3.786  20.512  67.981  1.00  0.00     0.007 C 
ATOM     14  C   UNL     1      -5.227  20.316  67.433  1.00  0.00     0.005 C 
ATOM     15  C   UNL     1      -7.176  17.779  65.911  1.00  0.00     0.012 C 
ATOM     16  C   UNL     1     -10.448  17.059  69.207  1.00  0.00     0.023 C 
ATOM     17  C   UNL     1      -5.903  19.512  70.230  1.00  0.00     0.044 C 
ATOM     18  C   UNL     1      -4.700  20.494  70.418  1.00  0.00     0.092 C 
ENDROOT
BRANCH   3  19
ATOM     19  C   UNL     1      -9.908  16.614  66.881  1.00  0.00     0.311 C 
ATOM     20  O   UNL     1     -10.362  16.933  65.792  1.00  0.00    -0.250 OA
BRANCH  19  21
ATOM     21  O   UNL     1      -9.637  15.339  67.164  1.00  0.00    -0.480 OA
ATOM     22  H   UNL     1      -9.652  15.043  68.053  1.00  0.00     0.295 HD
ENDBRANCH  19  21
ENDBRANCH   3  19
BRANCH  18  23
ATOM     23  C   UNL     1      -4.189  20.487  71.891  1.00  0.00     0.190 C 
BRANCH  23  24
ATOM     24  O   UNL     1      -4.125  21.850  72.358  1.00  0.00    -0.392 OA
ATOM     25  H   UNL     1      -4.897  22.339  72.035  1.00  0.00     0.210 HD
ENDBRANCH  23  24
ENDBRANCH  18  23
BRANCH  18  26
ATOM     26  O   UNL     1      -5.032  21.858  70.097  1.00  0.00    -0.386 OA
ATOM     27  H   UNL     1      -4.322  22.246  69.561  1.00  0.00     0.210 HD
ENDBRANCH  18  26
TORSDOF 5

ENDMDL
MODEL 2
REMARK VINA RESULT:    -6.079      6.642      9.592
REMARK INTER + INTRA:          -7.120
REMARK INTER:                  -7.369
REMARK INTRA:                   0.250
REMARK UNBOUND:                 0.203
REMARK SMILES C[C@@]12CCC[C@@](C)(C(=O)O)[C@H]1CC[C@@]13C[C@@H](CC[C@@H]12)[C@](O)(CO)C3
REMARK SMILES IDX 4 1 5 2 6 3 11 4 2 5 3 6 12 7 13 8 14 9 19 10 15 11 16 12
REMARK SMILES IDX 17 13 18 14 1 15 7 16 24 17 20 18 8 19 9 20 10 21 22 23
REMARK SMILES IDX 23 24 21 26
REMARK H PARENT 10 22 23 25 21 27
REMARK INDEX MAP 1 1 2 2 3 3 4 4 5 5 6 6 7 7 8 8 9 9 10 10 11 11 12 12 13 13
REMARK INDEX MAP 14 14 15 15 17 16 18 17 19 18 16 19 23 20 22 21 55 22 20 23
REMARK INDEX MAP 24 24 56 25 21 26 54 27
REMARK Flexibility Score: inf
ROOT
ATOM      1  C   UNL     1      -7.102   9.980  66.183  1.00  0.00     0.002 C 
ATOM      2  C   UNL     1      -6.723  10.206  64.699  1.00  0.00     0.018 C 
ATOM      3  C   UNL     1      -7.921   9.961  63.728  1.00  0.00     0.068 C 
ATOM      4  C   UNL     1      -9.130  10.861  64.198  1.00  0.00     0.012 C 
ATOM      5  C   UNL     1      -9.588  10.671  65.693  1.00  0.00    -0.025 C 
ATOM      6  C   UNL     1      -8.308  10.875  66.573  1.00  0.00     0.007 C 
ATOM      7  C   UNL     1     -10.340  10.898  63.224  1.00  0.00     0.006 C 
ATOM      8  C   UNL     1     -11.436  11.926  63.639  1.00  0.00     0.007 C 
ATOM      9  C   UNL     1     -11.188  12.692  64.976  1.00  0.00    -0.023 C 
ATOM     10  C   UNL     1     -10.761  11.678  66.086  1.00  0.00     0.002 C 
ATOM     11  C   UNL     1     -12.531  13.376  65.361  1.00  0.00     0.013 C 
ATOM     12  C   UNL     1     -12.088  14.299  66.509  1.00  0.00     0.024 C 
ATOM     13  C   UNL     1     -11.764  13.405  67.741  1.00  0.00     0.007 C 
ATOM     14  C   UNL     1     -10.608  12.405  67.460  1.00  0.00     0.005 C 
ATOM     15  C   UNL     1     -10.140   9.229  65.962  1.00  0.00     0.012 C 
ATOM     16  C   UNL     1      -7.416  10.353  62.300  1.00  0.00     0.023 C 
ATOM     17  C   UNL     1     -10.244  13.939  64.923  1.00  0.00     0.044 C 
ATOM     18  C   UNL     1     -10.841  15.001  65.903  1.00  0.00     0.092 C 
ENDROOT
BRANCH   3  19
ATOM     19  C   UNL     1      -8.218   8.476  63.617  1.00  0.00     0.311 C 
ATOM     20  O   UNL     1      -7.704   7.646  64.353  1.00  0.00    -0.250 OA
BRANCH  19  21
ATOM     21  O   UNL     1      -9.057   8.108  62.648  1.00  0.00    -0.480 OA
ATOM     22  H   UNL     1      -8.808   7.439  62.041  1.00  0.00     0.295 HD
ENDBRANCH  19  21
ENDBRANCH   3  19
BRANCH  18  23
ATOM     23  C   UNL     1     -11.223  16.313  65.152  1.00  0.00     0.190 C 
BRANCH  23  24
ATOM     24  O   UNL     1     -11.366  16.011  63.750  1.00  0.00    -0.392 OA
ATOM     25  H   UNL     1     -11.650  16.808  63.275  1.00  0.00     0.210 HD
ENDBRANCH  23  24
ENDBRANCH  18  23
BRANCH  18  26
ATOM     26  O   UNL     1      -9.931  15.371  66.955  1.00  0.00    -0.386 OA
ATOM     27  H   UNL     1      -9.287  14.659  67.091  1.00  0.00     0.210 HD
ENDBRANCH  18  26
TORSDOF 5

ENDMDL
MODEL 3
REMARK VINA RESULT:    -5.882      3.056      7.573
REMARK INTER + INTRA:          -6.882
REMARK INTER:                  -7.086
REMARK INTRA:                   0.203
REMARK UNBOUND:                 0.203
REMARK SMILES C[C@@]12CCC[C@@](C)(C(=O)O)[C@H]1CC[C@@]13C[C@@H](CC[C@@H]12)[C@](O)(CO)C3
REMARK SMILES IDX 4 1 5 2 6 3 11 4 2 5 3 6 12 7 13 8 14 9 19 10 15 11 16 12
REMARK SMILES IDX 17 13 18 14 1 15 7 16 24 17 20 18 8 19 9 20 10 21 22 23
REMARK SMILES IDX 23 24 21 26
REMARK H PARENT 10 22 23 25 21 27
REMARK INDEX MAP 1 1 2 2 3 3 4 4 5 5 6 6 7 7 8 8 9 9 10 10 11 11 12 12 13 13
REMARK INDEX MAP 14 14 15 15 17 16 18 17 19 18 16 19 23 20 22 21 55 22 20 23
REMARK INDEX MAP 24 24 56 25 21 26 54 27
REMARK Flexibility Score: inf
ROOT
ATOM      1  C   UNL     1     -10.361  18.914  67.385  1.00  0.00     0.002 C 
ATOM      2  C   UNL     1      -9.089  19.075  66.518  1.00  0.00     0.018 C 
ATOM      3  C   UNL     1      -7.948  18.093  66.936  1.00  0.00     0.068 C 
ATOM      4  C   UNL     1      -8.527  16.624  66.911  1.00  0.00     0.012 C 
ATOM      5  C   UNL     1      -9.812  16.377  67.788  1.00  0.00    -0.025 C 
ATOM      6  C   UNL     1     -10.864  17.447  67.335  1.00  0.00     0.007 C 
ATOM      7  C   UNL     1      -7.473  15.499  67.102  1.00  0.00     0.006 C 
ATOM      8  C   UNL     1      -8.056  14.067  66.901  1.00  0.00     0.007 C 
ATOM      9  C   UNL     1      -9.588  13.983  66.617  1.00  0.00    -0.023 C 
ATOM     10  C   UNL     1     -10.358  14.887  67.633  1.00  0.00     0.002 C 
ATOM     11  C   UNL     1     -10.001  12.495  66.802  1.00  0.00     0.013 C 
ATOM     12  C   UNL     1     -11.431  12.499  66.233  1.00  0.00     0.024 C 
ATOM     13  C   UNL     1     -12.341  13.261  67.240  1.00  0.00     0.007 C 
ATOM     14  C   UNL     1     -11.900  14.739  67.436  1.00  0.00     0.005 C 
ATOM     15  C   UNL     1      -9.532  16.585  69.317  1.00  0.00     0.012 C 
ATOM     16  C   UNL     1      -6.797  18.289  65.895  1.00  0.00     0.023 C 
ATOM     17  C   UNL     1     -10.057  14.222  65.143  1.00  0.00     0.044 C 
ATOM     18  C   UNL     1     -11.243  13.238  64.879  1.00  0.00     0.092 C 
ENDROOT
BRANCH   3  19
ATOM     19  C   UNL     1      -7.330  18.529  68.252  1.00  0.00     0.311 C 
ATOM     20  O   UNL     1      -7.781  19.450  68.917  1.00  0.00    -0.250 OA
BRANCH  19  21
ATOM     21  O   UNL     1      -6.240  17.869  68.645  1.00  0.00    -0.480 OA
ATOM     22  H   UNL     1      -6.289  17.265  69.360  1.00  0.00     0.295 HD
ENDBRANCH  19  21
ENDBRANCH   3  19
BRANCH  18  23
ATOM     23  C   UNL     1     -10.912  12.249  63.721  1.00  0.00     0.190 C 
BRANCH  23  24
ATOM     24  O   UNL     1      -9.491  12.285  63.482  1.00  0.00    -0.392 OA
ATOM     25  H   UNL     1      -9.124  13.107  63.842  1.00  0.00     0.210 HD
ENDBRANCH  23  24
ENDBRANCH  18  23
BRANCH  18  26
ATOM     26  O   UNL     1     -12.464  13.911  64.519  1.00  0.00    -0.386 OA
ATOM     27  H   UNL     1     -12.705  13.679  63.609  1.00  0.00     0.210 HD
ENDBRANCH  18  26
TORSDOF 5

ENDMDL
MODEL 4
REMARK VINA RESULT:    -5.615      1.638      6.229
REMARK INTER + INTRA:          -6.561
REMARK INTER:                  -6.798
REMARK INTRA:                   0.237
REMARK UNBOUND:                 0.203
REMARK SMILES C[C@@]12CCC[C@@](C)(C(=O)O)[C@H]1CC[C@@]13C[C@@H](CC[C@@H]12)[C@](O)(CO)C3
REMARK SMILES IDX 4 1 5 2 6 3 11 4 2 5 3 6 12 7 13 8 14 9 19 10 15 11 16 12
REMARK SMILES IDX 17 13 18 14 1 15 7 16 24 17 20 18 8 19 9 20 10 21 22 23
REMARK SMILES IDX 23 24 21 26
REMARK H PARENT 10 22 23 25 21 27
REMARK INDEX MAP 1 1 2 2 3 3 4 4 5 5 6 6 7 7 8 8 9 9 10 10 11 11 12 12 13 13
REMARK INDEX MAP 14 14 15 15 17 16 18 17 19 18 16 19 23 20 22 21 55 22 20 23
REMARK INDEX MAP 24 24 56 25 21 26 54 27
REMARK Flexibility Score: inf
ROOT
ATOM      1  C   UNL     1      -4.594  21.038  67.328  1.00  0.00     0.002 C 
ATOM      2  C   UNL     1      -3.701  19.836  66.935  1.00  0.00     0.018 C 
ATOM      3  C   UNL     1      -3.766  18.672  67.972  1.00  0.00     0.068 C 
ATOM      4  C   UNL     1      -5.281  18.272  68.171  1.00  0.00     0.012 C 
ATOM      5  C   UNL     1      -6.250  19.439  68.595  1.00  0.00    -0.025 C 
ATOM      6  C   UNL     1      -6.061  20.574  67.530  1.00  0.00     0.007 C 
ATOM      7  C   UNL     1      -5.517  16.990  69.017  1.00  0.00     0.006 C 
ATOM      8  C   UNL     1      -7.008  16.536  69.046  1.00  0.00     0.007 C 
ATOM      9  C   UNL     1      -8.021  17.457  68.297  1.00  0.00    -0.023 C 
ATOM     10  C   UNL     1      -7.764  18.947  68.693  1.00  0.00     0.002 C 
ATOM     11  C   UNL     1      -9.445  17.021  68.746  1.00  0.00     0.013 C 
ATOM     12  C   UNL     1     -10.331  17.792  67.752  1.00  0.00     0.024 C 
ATOM     13  C   UNL     1     -10.271  19.300  68.132  1.00  0.00     0.007 C 
ATOM     14  C   UNL     1      -8.831  19.878  68.038  1.00  0.00     0.005 C 
ATOM     15  C   UNL     1      -5.887  20.026  70.002  1.00  0.00     0.012 C 
ATOM     16  C   UNL     1      -2.923  17.500  67.371  1.00  0.00     0.023 C 
ATOM     17  C   UNL     1      -8.147  17.273  66.748  1.00  0.00     0.044 C 
ATOM     18  C   UNL     1      -9.657  17.465  66.390  1.00  0.00     0.092 C 
ENDROOT
BRANCH   3  19
ATOM     19  C   UNL     1      -3.019  19.048  69.239  1.00  0.00     0.311 C 
ATOM     20  O   UNL     1      -2.510  20.148  69.400  1.00  0.00    -0.250 OA
BRANCH  19  21
ATOM     21  O   UNL     1      -2.918  18.102  70.174  1.00  0.00    -0.480 OA
ATOM     22  H   UNL     1      -2.276  17.425  70.089  1.00  0.00     0.295 HD
ENDBRANCH  19  21
ENDBRANCH   3  19
BRANCH  18  23
ATOM     23  C   UNL     1     -10.254  16.180  65.742  1.00  0.00     0.190 C 
BRANCH  23  24
ATOM     24  O   UNL     1     -10.869  16.543  64.490  1.00  0.00    -0.392 OA
ATOM     25  H   UNL     1     -10.190  16.866  63.878  1.00  0.00     0.210 HD
ENDBRANCH  23  24
ENDBRANCH  18  23
BRANCH  18  26
ATOM     26  O   UNL     1      -9.882  18.544  65.464  1.00  0.00    -0.386 OA
ATOM     27  H   UNL     1      -9.745  19.392  65.915  1.00  0.00     0.210 HD
ENDBRANCH  18  26
TORSDOF 5

ENDMDL
MODEL 5
REMARK VINA RESULT:    -5.439      2.620      4.752
REMARK INTER + INTRA:          -6.349
REMARK INTER:                  -6.570
REMARK INTRA:                   0.221
REMARK UNBOUND:                 0.203
REMARK SMILES C[C@@]12CCC[C@@](C)(C(=O)O)[C@H]1CC[C@@]13C[C@@H](CC[C@@H]12)[C@](O)(CO)C3
REMARK SMILES IDX 4 1 5 2 6 3 11 4 2 5 3 6 12 7 13 8 14 9 19 10 15 11 16 12
REMARK SMILES IDX 17 13 18 14 1 15 7 16 24 17 20 18 8 19 9 20 10 21 22 23
REMARK SMILES IDX 23 24 21 26
REMARK H PARENT 10 22 23 25 21 27
REMARK INDEX MAP 1 1 2 2 3 3 4 4 5 5 6 6 7 7 8 8 9 9 10 10 11 11 12 12 13 13
REMARK INDEX MAP 14 14 15 15 17 16 18 17 19 18 16 19 23 20 22 21 55 22 20 23
REMARK INDEX MAP 24 24 56 25 21 26 54 27
REMARK Flexibility Score: inf
ROOT
ATOM      1  C   UNL     1      -8.056  13.854  68.428  1.00  0.00     0.002 C 
ATOM      2  C   UNL     1      -8.593  13.503  67.019  1.00  0.00     0.018 C 
ATOM      3  C   UNL     1      -9.860  14.331  66.635  1.00  0.00     0.068 C 
ATOM      4  C   UNL     1      -9.516  15.863  66.797  1.00  0.00     0.012 C 
ATOM      5  C   UNL     1      -8.984  16.302  68.213  1.00  0.00    -0.025 C 
ATOM      6  C   UNL     1      -7.761  15.374  68.527  1.00  0.00     0.007 C 
ATOM      7  C   UNL     1     -10.599  16.840  66.260  1.00  0.00     0.006 C 
ATOM      8  C   UNL     1     -10.149  18.333  66.282  1.00  0.00     0.007 C 
ATOM      9  C   UNL     1      -8.742  18.617  66.893  1.00  0.00    -0.023 C 
ATOM     10  C   UNL     1      -8.596  17.848  68.247  1.00  0.00     0.002 C 
ATOM     11  C   UNL     1      -8.655  20.150  67.134  1.00  0.00     0.013 C 
ATOM     12  C   UNL     1      -7.162  20.327  67.463  1.00  0.00     0.024 C 
ATOM     13  C   UNL     1      -6.910  19.718  68.872  1.00  0.00     0.007 C 
ATOM     14  C   UNL     1      -7.236  18.199  68.929  1.00  0.00     0.005 C 
ATOM     15  C   UNL     1     -10.056  16.094  69.337  1.00  0.00     0.012 C 
ATOM     16  C   UNL     1     -10.196  13.957  65.153  1.00  0.00     0.023 C 
ATOM     17  C   UNL     1      -7.501  18.409  65.961  1.00  0.00     0.044 C 
ATOM     18  C   UNL     1      -6.478  19.538  66.312  1.00  0.00     0.092 C 
ENDROOT
BRANCH   3  19
ATOM     19  C   UNL     1     -11.067  13.846  67.417  1.00  0.00     0.311 C 
ATOM     20  O   UNL     1     -12.175  14.348  67.295  1.00  0.00    -0.250 OA
BRANCH  19  21
ATOM     21  O   UNL     1     -10.858  12.848  68.277  1.00  0.00    -0.480 OA
ATOM     22  H   UNL     1     -11.326  12.822  69.088  1.00  0.00     0.295 HD
ENDBRANCH  19  21
ENDBRANCH   3  19
BRANCH  18  23
ATOM     23  C   UNL     1      -6.192  20.446  65.077  1.00  0.00     0.190 C 
BRANCH  23  24
ATOM     24  O   UNL     1      -6.210  19.624  63.892  1.00  0.00    -0.392 OA
ATOM     25  H   UNL     1      -6.859  19.977  63.265  1.00  0.00     0.210 HD
ENDBRANCH  23  24
ENDBRANCH  18  23
BRANCH  18  26
ATOM     26  O   UNL     1      -5.208  19.027  66.759  1.00  0.00    -0.386 OA
ATOM     27  H   UNL     1      -4.571  19.061  66.029  1.00  0.00     0.210 HD
ENDBRANCH  18  26
TORSDOF 5

ENDMDL
MODEL 6
REMARK VINA RESULT:    -5.382     11.881     14.767
REMARK INTER + INTRA:          -6.280
REMARK INTER:                  -6.482
REMARK INTRA:                   0.202
REMARK UNBOUND:                 0.203
REMARK SMILES C[C@@]12CCC[C@@](C)(C(=O)O)[C@H]1CC[C@@]13C[C@@H](CC[C@@H]12)[C@](O)(CO)C3
REMARK SMILES IDX 4 1 5 2 6 3 11 4 2 5 3 6 12 7 13 8 14 9 19 10 15 11 16 12
REMARK SMILES IDX 17 13 18 14 1 15 7 16 24 17 20 18 8 19 9 20 10 21 22 23
REMARK SMILES IDX 23 24 21 26
REMARK H PARENT 10 22 23 25 21 27
REMARK INDEX MAP 1 1 2 2 3 3 4 4 5 5 6 6 7 7 8 8 9 9 10 10 11 11 12 12 13 13
REMARK INDEX MAP 14 14 15 15 17 16 18 17 19 18 16 19 23 20 22 21 55 22 20 23
REMARK INDEX MAP 24 24 56 25 21 26 54 27
REMARK Flexibility Score: inf
ROOT
ATOM      1  C   UNL     1     -10.074   2.640  73.056  1.00  0.00     0.002 C 
ATOM      2  C   UNL     1     -10.286   2.994  74.548  1.00  0.00     0.018 C 
ATOM      3  C   UNL     1      -9.370   4.166  75.024  1.00  0.00     0.068 C 
ATOM      4  C   UNL     1      -9.601   5.396  74.062  1.00  0.00     0.012 C 
ATOM      5  C   UNL     1      -9.383   5.118  72.527  1.00  0.00    -0.025 C 
ATOM      6  C   UNL     1     -10.294   3.895  72.169  1.00  0.00     0.007 C 
ATOM      7  C   UNL     1      -8.921   6.719  74.511  1.00  0.00     0.006 C 
ATOM      8  C   UNL     1      -9.313   7.944  73.631  1.00  0.00     0.007 C 
ATOM      9  C   UNL     1     -10.249   7.647  72.418  1.00  0.00    -0.023 C 
ATOM     10  C   UNL     1      -9.716   6.401  71.640  1.00  0.00     0.002 C 
ATOM     11  C   UNL     1     -10.218   8.905  71.505  1.00  0.00     0.013 C 
ATOM     12  C   UNL     1     -11.365   8.603  70.525  1.00  0.00     0.024 C 
ATOM     13  C   UNL     1     -10.898   7.454  69.585  1.00  0.00     0.007 C 
ATOM     14  C   UNL     1     -10.576   6.146  70.362  1.00  0.00     0.005 C 
ATOM     15  C   UNL     1      -7.898   4.733  72.202  1.00  0.00     0.012 C 
ATOM     16  C   UNL     1      -9.792   4.483  76.497  1.00  0.00     0.023 C 
ATOM     17  C   UNL     1     -11.784   7.548  72.706  1.00  0.00     0.044 C 
ATOM     18  C   UNL     1     -12.517   8.194  71.485  1.00  0.00     0.092 C 
ENDROOT
BRANCH   3  19
ATOM     19  C   UNL     1      -7.931   3.696  75.150  1.00  0.00     0.311 C 
ATOM     20  O   UNL     1      -7.587   2.554  74.881  1.00  0.00    -0.250 OA
BRANCH  19  21
ATOM     21  O   UNL     1      -7.049   4.591  75.597  1.00  0.00    -0.480 OA
ATOM     22  H   UNL     1      -7.272   5.150  76.315  1.00  0.00     0.295 HD
ENDBRANCH  19  21
ENDBRANCH   3  19
BRANCH  18  23
ATOM     23  C   UNL     1     -13.371   9.422  71.921  1.00  0.00     0.190 C 
BRANCH  23  24
ATOM     24  O   UNL     1     -14.036   9.099  73.159  1.00  0.00    -0.392 OA
ATOM     25  H   UNL     1     -14.969   8.901  72.982  1.00  0.00     0.210 HD
ENDBRANCH  23  24
ENDBRANCH  18  23
BRANCH  18  26
ATOM     26  O   UNL     1     -13.407   7.281  70.816  1.00  0.00    -0.386 OA
ATOM     27  H   UNL     1     -14.208   7.161  71.350  1.00  0.00     0.210 HD
ENDBRANCH  18  26
TORSDOF 5

ENDMDL
MODEL 7
REMARK VINA RESULT:    -5.289      2.020      6.315
REMARK INTER + INTRA:          -6.168
REMARK INTER:                  -6.323
REMARK INTRA:                   0.156
REMARK UNBOUND:                 0.203
REMARK SMILES C[C@@]12CCC[C@@](C)(C(=O)O)[C@H]1CC[C@@]13C[C@@H](CC[C@@H]12)[C@](O)(CO)C3
REMARK SMILES IDX 4 1 5 2 6 3 11 4 2 5 3 6 12 7 13 8 14 9 19 10 15 11 16 12
REMARK SMILES IDX 17 13 18 14 1 15 7 16 24 17 20 18 8 19 9 20 10 21 22 23
REMARK SMILES IDX 23 24 21 26
REMARK H PARENT 10 22 23 25 21 27
REMARK INDEX MAP 1 1 2 2 3 3 4 4 5 5 6 6 7 7 8 8 9 9 10 10 11 11 12 12 13 13
REMARK INDEX MAP 14 14 15 15 17 16 18 17 19 18 16 19 23 20 22 21 55 22 20 23
REMARK INDEX MAP 24 24 56 25 21 26 54 27
REMARK Flexibility Score: inf
ROOT
ATOM      1  C   UNL     1      -4.702  17.011  68.407  1.00  0.00     0.002 C 
ATOM      2  C   UNL     1      -4.993  18.054  69.514  1.00  0.00     0.018 C 
ATOM      3  C   UNL     1      -5.994  19.160  69.051  1.00  0.00     0.068 C 
ATOM      4  C   UNL     1      -7.300  18.452  68.516  1.00  0.00     0.012 C 
ATOM      5  C   UNL     1      -7.086  17.392  67.370  1.00  0.00    -0.025 C 
ATOM      6  C   UNL     1      -6.026  16.371  67.910  1.00  0.00     0.007 C 
ATOM      7  C   UNL     1      -8.485  19.407  68.204  1.00  0.00     0.006 C 
ATOM      8  C   UNL     1      -9.803  18.658  67.843  1.00  0.00     0.007 C 
ATOM      9  C   UNL     1      -9.714  17.101  67.782  1.00  0.00    -0.023 C 
ATOM     10  C   UNL     1      -8.454  16.683  66.957  1.00  0.00     0.002 C 
ATOM     11  C   UNL     1     -11.007  16.601  67.078  1.00  0.00     0.013 C 
ATOM     12  C   UNL     1     -10.928  15.085  67.328  1.00  0.00     0.024 C 
ATOM     13  C   UNL     1      -9.782  14.516  66.441  1.00  0.00     0.007 C 
ATOM     14  C   UNL     1      -8.399  15.131  66.792  1.00  0.00     0.005 C 
ATOM     15  C   UNL     1      -6.516  18.042  66.063  1.00  0.00     0.012 C 
ATOM     16  C   UNL     1      -6.279  20.047  70.307  1.00  0.00     0.023 C 
ATOM     17  C   UNL     1      -9.814  16.324  69.137  1.00  0.00     0.044 C 
ATOM     18  C   UNL     1     -10.628  15.020  68.851  1.00  0.00     0.092 C 
ENDROOT
BRANCH   3  19
ATOM     19  C   UNL     1      -5.320  20.110  68.077  1.00  0.00     0.311 C 
ATOM     20  O   UNL     1      -4.174  19.946  67.685  1.00  0.00    -0.250 OA
BRANCH  19  21
ATOM     21  O   UNL     1      -6.036  21.163  67.681  1.00  0.00    -0.480 OA
ATOM     22  H   UNL     1      -5.606  21.917  67.328  1.00  0.00     0.295 HD
ENDBRANCH  19  21
ENDBRANCH   3  19
BRANCH  18  23
ATOM     23  C   UNL     1     -11.936  14.971  69.697  1.00  0.00     0.190 C 
BRANCH  23  24
ATOM     24  O   UNL     1     -11.872  16.009  70.696  1.00  0.00    -0.392 OA
ATOM     25  H   UNL     1     -12.728  16.077  71.147  1.00  0.00     0.210 HD
ENDBRANCH  23  24
ENDBRANCH  18  23
BRANCH  18  26
ATOM     26  O   UNL     1      -9.891  13.820  69.151  1.00  0.00    -0.386 OA
ATOM     27  H   UNL     1      -8.999  14.054  69.450  1.00  0.00     0.210 HD
ENDBRANCH  18  26
TORSDOF 5

ENDMDL
MODEL 8
REMARK VINA RESULT:    -5.212      2.134      6.171
REMARK INTER + INTRA:          -6.076
REMARK INTER:                  -6.297
REMARK INTRA:                   0.222
REMARK UNBOUND:                 0.203
REMARK SMILES C[C@@]12CCC[C@@](C)(C(=O)O)[C@H]1CC[C@@]13C[C@@H](CC[C@@H]12)[C@](O)(CO)C3
REMARK SMILES IDX 4 1 5 2 6 3 11 4 2 5 3 6 12 7 13 8 14 9 19 10 15 11 16 12
REMARK SMILES IDX 17 13 18 14 1 15 7 16 24 17 20 18 8 19 9 20 10 21 22 23
REMARK SMILES IDX 23 24 21 26
REMARK H PARENT 10 22 23 25 21 27
REMARK INDEX MAP 1 1 2 2 3 3 4 4 5 5 6 6 7 7 8 8 9 9 10 10 11 11 12 12 13 13
REMARK INDEX MAP 14 14 15 15 17 16 18 17 19 18 16 19 23 20 22 21 55 22 20 23
REMARK INDEX MAP 24 24 56 25 21 26 54 27
REMARK Flexibility Score: inf
ROOT
ATOM      1  C   UNL     1      -4.901  19.291  64.181  1.00  0.00     0.002 C 
ATOM      2  C   UNL     1      -4.122  18.117  64.823  1.00  0.00     0.018 C 
ATOM      3  C   UNL     1      -4.016  18.242  66.375  1.00  0.00     0.068 C 
ATOM      4  C   UNL     1      -5.475  18.404  66.959  1.00  0.00     0.012 C 
ATOM      5  C   UNL     1      -6.322  19.593  66.369  1.00  0.00    -0.025 C 
ATOM      6  C   UNL     1      -6.313  19.409  64.813  1.00  0.00     0.007 C 
ATOM      7  C   UNL     1      -5.574  18.336  68.508  1.00  0.00     0.006 C 
ATOM      8  C   UNL     1      -7.043  18.329  69.032  1.00  0.00     0.007 C 
ATOM      9  C   UNL     1      -8.159  18.459  67.950  1.00  0.00    -0.023 C 
ATOM     10  C   UNL     1      -7.801  19.621  66.967  1.00  0.00     0.002 C 
ATOM     11  C   UNL     1      -9.482  18.780  68.701  1.00  0.00     0.013 C 
ATOM     12  C   UNL     1     -10.523  18.608  67.581  1.00  0.00     0.024 C 
ATOM     13  C   UNL     1     -10.361  19.801  66.594  1.00  0.00     0.007 C 
ATOM     14  C   UNL     1      -8.953  19.840  65.937  1.00  0.00     0.005 C 
ATOM     15  C   UNL     1      -5.689  20.989  66.699  1.00  0.00     0.012 C 
ATOM     16  C   UNL     1      -3.325  16.931  66.876  1.00  0.00     0.023 C 
ATOM     17  C   UNL     1      -8.577  17.155  67.191  1.00  0.00     0.044 C 
ATOM     18  C   UNL     1     -10.123  17.236  66.970  1.00  0.00     0.092 C 
ENDROOT
BRANCH   3  19
ATOM     19  C   UNL     1      -3.037  19.339  66.753  1.00  0.00     0.311 C 
ATOM     20  O   UNL     1      -2.480  20.038  65.919  1.00  0.00    -0.250 OA
BRANCH  19  21
ATOM     21  O   UNL     1      -2.787  19.492  68.054  1.00  0.00    -0.480 OA
ATOM     22  H   UNL     1      -3.411  19.922  68.604  1.00  0.00     0.295 HD
ENDBRANCH  19  21
ENDBRANCH   3  19
BRANCH  18  23
ATOM     23  C   UNL     1     -10.858  16.054  67.672  1.00  0.00     0.190 C 
BRANCH  23  24
ATOM     24  O   UNL     1     -11.101  15.023  66.694  1.00  0.00    -0.392 OA
ATOM     25  H   UNL     1     -10.278  14.541  66.521  1.00  0.00     0.210 HD
ENDBRANCH  23  24
ENDBRANCH  18  23
BRANCH  18  26
ATOM     26  O   UNL     1     -10.496  17.194  65.580  1.00  0.00    -0.386 OA
ATOM     27  H   UNL     1     -10.403  18.078  65.194  1.00  0.00     0.210 HD
ENDBRANCH  18  26
TORSDOF 5

ENDMDL
MODEL 9
REMARK VINA RESULT:    -5.112      5.555      8.974
REMARK INTER + INTRA:          -5.955
REMARK INTER:                  -6.153
REMARK INTRA:                   0.198
REMARK UNBOUND:                 0.203
REMARK SMILES C[C@@]12CCC[C@@](C)(C(=O)O)[C@H]1CC[C@@]13C[C@@H](CC[C@@H]12)[C@](O)(CO)C3
REMARK SMILES IDX 4 1 5 2 6 3 11 4 2 5 3 6 12 7 13 8 14 9 19 10 15 11 16 12
REMARK SMILES IDX 17 13 18 14 1 15 7 16 24 17 20 18 8 19 9 20 10 21 22 23
REMARK SMILES IDX 23 24 21 26
REMARK H PARENT 10 22 23 25 21 27
REMARK INDEX MAP 1 1 2 2 3 3 4 4 5 5 6 6 7 7 8 8 9 9 10 10 11 11 12 12 13 13
REMARK INDEX MAP 14 14 15 15 17 16 18 17 19 18 16 19 23 20 22 21 55 22 20 23
REMARK INDEX MAP 24 24 56 25 21 26 54 27
REMARK Flexibility Score: inf
ROOT
ATOM      1  C   UNL     1      -7.941   9.473  68.540  1.00  0.00     0.002 C 
ATOM      2  C   UNL     1      -7.092   9.628  67.255  1.00  0.00     0.018 C 
ATOM      3  C   UNL     1      -7.962   9.652  65.958  1.00  0.00     0.068 C 
ATOM      4  C   UNL     1      -9.052  10.783  66.116  1.00  0.00     0.012 C 
ATOM      5  C   UNL     1      -9.971  10.680  67.391  1.00  0.00    -0.025 C 
ATOM      6  C   UNL     1      -9.005  10.600  68.622  1.00  0.00     0.007 C 
ATOM      7  C   UNL     1      -9.877  11.085  64.834  1.00  0.00     0.006 C 
ATOM      8  C   UNL     1     -10.819  12.318  64.981  1.00  0.00     0.007 C 
ATOM      9  C   UNL     1     -10.842  13.001  66.384  1.00  0.00    -0.023 C 
ATOM     10  C   UNL     1     -10.982  11.909  67.494  1.00  0.00     0.002 C 
ATOM     11  C   UNL     1     -12.073  13.950  66.405  1.00  0.00     0.013 C 
ATOM     12  C   UNL     1     -11.826  14.748  67.697  1.00  0.00     0.024 C 
ATOM     13  C   UNL     1     -12.075  13.794  68.901  1.00  0.00     0.007 C 
ATOM     14  C   UNL     1     -11.112  12.574  68.901  1.00  0.00     0.005 C 
ATOM     15  C   UNL     1     -10.854   9.385  67.379  1.00  0.00     0.012 C 
ATOM     16  C   UNL     1      -6.981   9.941  64.776  1.00  0.00     0.023 C 
ATOM     17  C   UNL     1      -9.697  14.020  66.703  1.00  0.00     0.044 C 
ATOM     18  C   UNL     1     -10.340  15.175  67.538  1.00  0.00     0.092 C 
ENDROOT
BRANCH   3  19
ATOM     19  C   UNL     1      -8.500   8.265  65.656  1.00  0.00     0.311 C 
ATOM     20  O   UNL     1      -8.463   7.353  66.470  1.00  0.00    -0.250 OA
BRANCH  19  21
ATOM     21  O   UNL     1      -9.001   8.073  64.435  1.00  0.00    -0.480 OA
ATOM     22  H   UNL     1      -9.341   8.798  63.949  1.00  0.00     0.295 HD
ENDBRANCH  19  21
ENDBRANCH   3  19
BRANCH  18  23
ATOM     23  C   UNL     1     -10.206  16.545  66.807  1.00  0.00     0.190 C 
BRANCH  23  24
ATOM     24  O   UNL     1      -9.304  16.382  65.694  1.00  0.00    -0.392 OA
ATOM     25  H   UNL     1      -9.283  17.199  65.173  1.00  0.00     0.210 HD
ENDBRANCH  23  24
ENDBRANCH  18  23
BRANCH  18  26
ATOM     26  O   UNL     1      -9.737  15.334  68.836  1.00  0.00    -0.386 OA
ATOM     27  H   UNL     1     -10.410  15.622  69.473  1.00  0.00     0.210 HD
ENDBRANCH  18  26
TORSDOF 5

ENDMDL
MODEL 10
REMARK VINA RESULT:    -5.108      6.729     10.094
REMARK INTER + INTRA:          -5.950
REMARK INTER:                  -6.141
REMARK INTRA:                   0.191
REMARK UNBOUND:                 0.203
REMARK SMILES C[C@@]12CCC[C@@](C)(C(=O)O)[C@H]1CC[C@@]13C[C@@H](CC[C@@H]12)[C@](O)(CO)C3
REMARK SMILES IDX 4 1 5 2 6 3 11 4 2 5 3 6 12 7 13 8 14 9 19 10 15 11 16 12
REMARK SMILES IDX 17 13 18 14 1 15 7 16 24 17 20 18 8 19 9 20 10 21 22 23
REMARK SMILES IDX 23 24 21 26
REMARK H PARENT 10 22 23 25 21 27
REMARK INDEX MAP 1 1 2 2 3 3 4 4 5 5 6 6 7 7 8 8 9 9 10 10 11 11 12 12 13 13
REMARK INDEX MAP 14 14 15 15 17 16 18 17 19 18 16 19 23 20 22 21 55 22 20 23
REMARK INDEX MAP 24 24 56 25 21 26 54 27
REMARK Flexibility Score: inf
ROOT
ATOM      1  C   UNL     1      -7.475   8.282  66.954  1.00  0.00     0.002 C 
ATOM      2  C   UNL     1      -8.717   7.359  66.910  1.00  0.00     0.018 C 
ATOM      3  C   UNL     1      -9.703   7.619  68.093  1.00  0.00     0.068 C 
ATOM      4  C   UNL     1     -10.077   9.153  68.096  1.00  0.00     0.012 C 
ATOM      5  C   UNL     1      -8.864  10.156  68.163  1.00  0.00    -0.025 C 
ATOM      6  C   UNL     1      -7.912   9.771  66.979  1.00  0.00     0.007 C 
ATOM      7  C   UNL     1     -11.209   9.551  69.083  1.00  0.00     0.006 C 
ATOM      8  C   UNL     1     -11.664  11.035  68.934  1.00  0.00     0.007 C 
ATOM      9  C   UNL     1     -10.881  11.892  67.891  1.00  0.00    -0.023 C 
ATOM     10  C   UNL     1      -9.345  11.674  68.084  1.00  0.00     0.002 C 
ATOM     11  C   UNL     1     -11.251  13.378  68.158  1.00  0.00     0.013 C 
ATOM     12  C   UNL     1     -10.653  14.072  66.921  1.00  0.00     0.024 C 
ATOM     13  C   UNL     1      -9.104  14.047  67.063  1.00  0.00     0.007 C 
ATOM     14  C   UNL     1      -8.537  12.600  67.121  1.00  0.00     0.005 C 
ATOM     15  C   UNL     1      -8.058  10.020  69.501  1.00  0.00     0.012 C 
ATOM     16  C   UNL     1     -10.949   6.710  67.834  1.00  0.00     0.023 C 
ATOM     17  C   UNL     1     -11.310  11.762  66.391  1.00  0.00     0.044 C 
ATOM     18  C   UNL     1     -11.188  13.188  65.760  1.00  0.00     0.092 C 
ENDROOT
BRANCH   3  19
ATOM     19  C   UNL     1      -9.124   7.085  69.391  1.00  0.00     0.311 C 
ATOM     20  O   UNL     1      -8.007   6.593  69.460  1.00  0.00    -0.250 OA
BRANCH  19  21
ATOM     21  O   UNL     1      -9.911   7.154  70.466  1.00  0.00    -0.480 OA
ATOM     22  H   UNL     1     -10.080   6.384  70.973  1.00  0.00     0.295 HD
ENDBRANCH  19  21
ENDBRANCH   3  19
BRANCH  18  23
ATOM     23  C   UNL     1     -12.564  13.694  65.233  1.00  0.00     0.190 C 
BRANCH  23  24
ATOM     24  O   UNL     1     -13.278  12.573  64.672  1.00  0.00    -0.392 OA
ATOM     25  H   UNL     1     -14.229  12.759  64.681  1.00  0.00     0.210 HD
ENDBRANCH  23  24
ENDBRANCH  18  23
BRANCH  18  26
ATOM     26  O   UNL     1     -10.271  13.235  64.651  1.00  0.00    -0.386 OA
ATOM     27  H   UNL     1      -9.978  12.337  64.434  1.00  0.00     0.210 HD
ENDBRANCH  18  26
TORSDOF 5

ENDMDL
