REMARK SMILES C[C@@]12CCC[C@@](C)(C(=O)O)[C@H]1CC[C@@]13C[C@@H](CC[C@@H]12)[C@](O)(CO)C3
REMARK SMILES IDX 4 1 5 2 6 3 11 4 2 5 3 6 12 7 13 8 14 9 19 10 15 11 16 12
REMARK SMILES IDX 17 13 18 14 1 15 7 16 24 17 20 18 8 19 9 20 10 21 22 23
REMARK SMILES IDX 23 24 21 26
REMARK H PARENT 10 22 23 25 21 27
REMARK INDEX MAP 1 1 2 2 3 3 4 4 5 5 6 6 7 7 8 8 9 9 10 10 11 11 12 12 13 13
REMARK INDEX MAP 14 14 15 15 17 16 18 17 19 18 16 19 23 20 22 21 55 22 20 23
REMARK INDEX MAP 24 24 56 25 21 26 54 27
REMARK Flexibility Score: inf
ROOT
ATOM      1  C   UNL     1      -2.860   0.031  -2.076  1.00  0.00     0.002 C 
ATOM      2  C   UNL     1      -2.944  -1.413  -1.524  1.00  0.00     0.018 C 
ATOM      3  C   UNL     1      -1.574  -2.160  -1.581  1.00  0.00     0.068 C 
ATOM      4  C   UNL     1      -0.499  -1.278  -0.833  1.00  0.00     0.012 C 
ATOM      5  C   UNL     1      -0.340   0.200  -1.354  1.00  0.00    -0.025 C 
ATOM      6  C   UNL     1      -1.772   0.835  -1.315  1.00  0.00     0.007 C 
ATOM      7  C   UNL     1       0.878  -1.964  -0.615  1.00  0.00     0.006 C 
ATOM      8  C   UNL     1       1.850  -1.129   0.273  1.00  0.00     0.007 C 
ATOM      9  C   UNL     1       1.329   0.267   0.736  1.00  0.00    -0.023 C 
ATOM     10  C   UNL     1       0.712   1.025  -0.484  1.00  0.00     0.002 C 
ATOM     11  C   UNL     1       2.556   1.047   1.288  1.00  0.00     0.013 C 
ATOM     12  C   UNL     1       1.878   2.259   1.951  1.00  0.00     0.024 C 
ATOM     13  C   UNL     1       1.336   3.179   0.819  1.00  0.00     0.007 C 
ATOM     14  C   UNL     1       0.278   2.466  -0.069  1.00  0.00     0.005 C 
ATOM     15  C   UNL     1       0.177   0.252  -2.833  1.00  0.00     0.012 C 
ATOM     16  C   UNL     1      -1.796  -3.539  -0.877  1.00  0.00     0.023 C 
ATOM     17  C   UNL     1       0.389   0.302   1.987  1.00  0.00     0.044 C 
ATOM     18  C   UNL     1       0.761   1.587   2.797  1.00  0.00     0.092 C 
ENDROOT
BRANCH   3  19
ATOM     19  C   UNL     1      -1.232  -2.531  -3.013  1.00  0.00     0.311 C 
ATOM     20  O   UNL     1      -1.962  -2.258  -3.955  1.00  0.00    -0.250 OA
BRANCH  19  21
ATOM     21  O   UNL     1      -0.094  -3.201  -3.199  1.00  0.00    -0.480 OA
ATOM     22  H   UNL     1       0.456  -3.403  -2.468  1.00  0.00     0.295 HD
ENDBRANCH  19  21
ENDBRANCH   3  19
BRANCH  18  23
ATOM     23  C   UNL     1       1.256   1.229   4.231  1.00  0.00     0.190 C 
BRANCH  23  24
ATOM     24  O   UNL     1       0.183   0.570   4.933  1.00  0.00    -0.392 OA
ATOM     25  H   UNL     1      -0.584   1.161   4.979  1.00  0.00     0.210 HD
ENDBRANCH  23  24
ENDBRANCH  18  23
BRANCH  18  26
ATOM     26  O   UNL     1      -0.346   2.495   2.951  1.00  0.00    -0.386 OA
ATOM     27  H   UNL     1      -0.685   2.743   2.077  1.00  0.00     0.210 HD
ENDBRANCH  18  26
TORSDOF 5

