MOL010428
  PyMOL2.4          3D                             0

 24 27  0  0  0  0  0  0  0  0999 V2000
   -2.8598    0.0307   -2.0760 C   0  0  0  0  0  0  0  0  0  0  0  0
   -2.9445   -1.4131   -1.5244 C   0  0  0  0  0  0  0  0  0  0  0  0
   -1.5735   -2.1600   -1.5814 C   0  0  0  0  0  0  0  0  0  0  0  0
   -0.4989   -1.2784   -0.8331 C   0  0  0  0  0  0  0  0  0  0  0  0
   -0.3398    0.2002   -1.3538 C   0  0  0  0  0  0  0  0  0  0  0  0
   -1.7720    0.8348   -1.3147 C   0  0  0  0  0  0  0  0  0  0  0  0
    0.8779   -1.9641   -0.6148 C   0  0  0  0  0  0  0  0  0  0  0  0
    1.8497   -1.1292    0.2727 C   0  0  0  0  0  0  0  0  0  0  0  0
    1.3285    0.2666    0.7358 C   0  0  0  0  0  0  0  0  0  0  0  0
    0.7124    1.0250   -0.4841 C   0  0  0  0  0  0  0  0  0  0  0  0
    2.5560    1.0468    1.2880 C   0  0  0  0  0  0  0  0  0  0  0  0
    1.8785    2.2586    1.9506 C   0  0  0  0  0  0  0  0  0  0  0  0
    1.3356    3.1789    0.8192 C   0  0  0  0  0  0  0  0  0  0  0  0
    0.2777    2.4664   -0.0686 C   0  0  0  0  0  0  0  0  0  0  0  0
    0.1766    0.2525   -2.8331 C   0  0  0  0  0  0  0  0  0  0  0  0
   -1.2321   -2.5313   -3.0134 C   0  0  0  0  0  0  0  0  0  0  0  0
   -1.7965   -3.5391   -0.8770 C   0  0  0  0  0  0  0  0  0  0  0  0
    0.3893    0.3016    1.9867 C   0  0  0  0  0  0  0  0  0  0  0  0
    0.7611    1.5871    2.7974 C   0  0  0  0  0  0  0  0  0  0  0  0
    1.2563    1.2292    4.2314 C   0  0  0  0  0  0  0  0  0  0  0  0
   -0.3460    2.4947    2.9512 O   0  0  0  0  0  0  0  0  0  0  0  0
   -0.0938   -3.2013   -3.1992 O   0  0  0  0  0  0  0  0  0  0  0  0
   -1.9625   -2.2584   -3.9548 O   0  0  0  0  0  0  0  0  0  0  0  0
    0.1833    0.5700    4.9331 O   0  0  0  0  0  0  0  0  0  0  0  0
  1  2  1  0  0  0  0
  1  6  1  0  0  0  0
  2  3  1  0  0  0  0
  3  4  1  0  0  0  0
  3 16  1  0  0  0  0
  3 17  1  0  0  0  0
  4  5  1  0  0  0  0
  4  7  1  0  0  0  0
  5  6  1  0  0  0  0
  5 10  1  0  0  0  0
  5 15  1  0  0  0  0
  7  8  1  0  0  0  0
  8  9  1  0  0  0  0
  9 10  1  0  0  0  0
  9 11  1  0  0  0  0
  9 18  1  0  0  0  0
 10 14  1  0  0  0  0
 11 12  1  0  0  0  0
 12 13  1  0  0  0  0
 12 19  1  0  0  0  0
 13 14  1  0  0  0  0
 16 22  1  0  0  0  0
 16 23  2  0  0  0  0
 18 19  1  0  0  0  0
 19 20  1  0  0  0  0
 19 21  1  0  0  0  0
 20 24  1  0  0  0  0
M  END
$$$$
