MODEL 1
REMARK VINA RESULT:    -7.394      0.000      0.000
REMARK INTER + INTRA:         -19.615
REMARK INTER:                 -16.106
REMARK INTRA:                  -3.509
REMARK UNBOUND:                -4.441
REMARK SMILES Cc1cc(C(=O)N[C@@H](C)C(=O)N[C@H](C(=O)N[C@@H](CC(C)C)C(=O)N[C@H](/C=C/C(=O)OCc2ccccc2)C[C@@H]2CCNC2=O)C(C)C)no1
REMARK SMILES IDX 22 1 23 2 24 3 17 5 16 6 14 7 15 8 13 10 12 11 10 12 11 13
REMARK SMILES IDX 8 15 9 16 7 17 5 18 6 19 4 21 1 22 2 23 3 24 49 25 48 26
REMARK SMILES IDX 45 27 46 28 47 29 18 30 19 31 20 32 21 33 25 34 38 35 39 36
REMARK SMILES IDX 40 37 43 38 41 39 42 40 44 41 26 43 27 44 28 45 29 46 30 47
REMARK SMILES IDX 31 48 32 49 33 50 37 51 34 52 36 53 35 54
REMARK H PARENT 24 4 16 9 12 14 7 20 42 42
REMARK INDEX MAP 27 1 28 2 29 3 79 4 22 5 21 6 19 7 20 8 68 9 15 10 14 11
REMARK INDEX MAP 12 12 13 13 59 14 10 15 11 16 9 17 7 18 8 19 54 20 4 21 1 22
REMARK INDEX MAP 2 23 3 24 6 25 5 26 16 27 17 28 18 29 23 30 24 31 25 32 26 33
REMARK INDEX MAP 30 34 31 35 32 36 33 37 36 38 34 39 35 40 37 41 88 42 38 43
REMARK INDEX MAP 39 44 40 45 41 46 42 47 43 48 44 49 45 50 49 51 46 52 48 53
REMARK INDEX MAP 47 54
REMARK Flexibility Score: inf
ROOT
ATOM      1  C   UNL     1     -11.677  14.247  69.365  1.00  0.00     0.234 C 
ATOM      2  O   UNL     1     -12.269  14.435  68.324  1.00  0.00    -0.274 OA
ATOM      3  N   UNL     1     -11.308  12.998  69.715  1.00  0.00    -0.307 N 
ATOM      4  H   UNL     1     -10.894  12.835  70.593  1.00  0.00     0.149 HD
ENDROOT
BRANCH   1   5
ATOM      5  C   UNL     1     -11.352  15.409  70.269  1.00  0.00     0.159 C 
BRANCH   5   6
ATOM      6  N   UNL     1     -11.061  16.593  69.456  1.00  0.00    -0.302 N 
ATOM      7  C   UNL     1      -9.792  16.870  69.101  1.00  0.00     0.234 C 
ATOM      8  O   UNL     1      -8.905  16.082  69.355  1.00  0.00    -0.274 OA
ATOM      9  H   UNL     1     -11.793  17.186  69.170  1.00  0.00     0.150 HD
BRANCH   7  10
ATOM     10  C   UNL     1      -9.473  18.159  68.387  1.00  0.00     0.161 C 
BRANCH  10  11
ATOM     11  N   UNL     1      -8.056  18.174  68.016  1.00  0.00    -0.302 N 
ATOM     12  C   UNL     1      -7.194  18.970  68.679  1.00  0.00     0.234 C 
ATOM     13  O   UNL     1      -7.592  19.674  69.583  1.00  0.00    -0.274 OA
ATOM     14  H   UNL     1      -7.733  17.602  67.283  1.00  0.00     0.150 HD
BRANCH  12  15
ATOM     15  C   UNL     1      -5.736  18.986  68.297  1.00  0.00     0.156 C 
ATOM     16  C   UNL     1      -5.383  17.683  67.578  1.00  0.00     0.038 C 
BRANCH  15  17
ATOM     17  N   UNL     1      -4.917  19.114  69.506  1.00  0.00    -0.299 N 
ATOM     18  C   UNL     1      -4.015  20.110  69.604  1.00  0.00     0.266 C 
ATOM     19  O   UNL     1      -3.880  20.901  68.693  1.00  0.00    -0.268 OA
ATOM     20  H   UNL     1      -5.026  18.473  70.244  1.00  0.00     0.150 HD
BRANCH  18  21
ATOM     21  C   UNL     1      -3.185  20.240  70.828  1.00  0.00     0.168 A 
ATOM     22  C   UNL     1      -0.215  20.922  72.866  1.00  0.00     0.089 C 
ATOM     23  C   UNL     1      -1.535  20.595  72.219  1.00  0.00     0.135 A 
ATOM     24  C   UNL     1      -1.819  20.632  70.896  1.00  0.00     0.080 A 
ATOM     25  O   UNL     1      -2.657  20.205  72.842  1.00  0.00    -0.359 OA
ATOM     26  N   UNL     1      -3.562  20.018  72.062  1.00  0.00    -0.073 NA
ENDBRANCH  18  21
ENDBRANCH  15  17
ENDBRANCH  12  15
ENDBRANCH  10  11
BRANCH  10  27
ATOM     27  C   UNL     1     -10.332  18.268  67.126  1.00  0.00     0.012 C 
ATOM     28  C   UNL     1     -10.181  19.668  66.527  1.00  0.00     0.009 C 
ATOM     29  C   UNL     1      -9.873  17.226  66.104  1.00  0.00     0.009 C 
ENDBRANCH  10  27
ENDBRANCH   7  10
ENDBRANCH   5   6
BRANCH   5  30
ATOM     30  C   UNL     1     -12.549  15.697  71.178  1.00  0.00     0.034 C 
BRANCH  30  31
ATOM     31  C   UNL     1     -12.392  14.923  72.488  1.00  0.00    -0.015 C 
ATOM     32  C   UNL     1     -12.528  15.885  73.668  1.00  0.00     0.007 C 
ATOM     33  C   UNL     1     -13.477  13.848  72.579  1.00  0.00     0.007 C 
ENDBRANCH  30  31
ENDBRANCH   5  30
ENDBRANCH   1   5
BRANCH   3  34
ATOM     34  C   UNL     1     -11.524  11.884  68.788  1.00  0.00     0.097 C 
BRANCH  34  35
ATOM     35  C   UNL     1     -10.236  11.616  68.005  1.00  0.00     0.039 C 
BRANCH  35  36
ATOM     36  C   UNL     1     -10.588  11.170  66.584  1.00  0.00     0.078 C 
ATOM     37  C   UNL     1      -9.702   9.975  66.158  1.00  0.00     0.031 C 
ATOM     38  C   UNL     1     -10.253  12.258  65.589  1.00  0.00     0.216 C 
ATOM     39  C   UNL     1      -9.469  10.275  64.661  1.00  0.00     0.105 C 
ATOM     40  N   UNL     1      -9.619  11.729  64.524  1.00  0.00    -0.315 N 
ATOM     41  O   UNL     1     -10.512  13.434  65.728  1.00  0.00    -0.276 OA
ATOM     42  H   UNL     1      -9.298  12.250  63.753  1.00  0.00     0.149 HD
ENDBRANCH  35  36
ENDBRANCH  34  35
BRANCH  34  43
ATOM     43  C   UNL     1     -11.904  10.651  69.565  1.00  0.00     0.002 C 
ATOM     44  C   UNL     1     -12.237  10.751  70.850  1.00  0.00     0.089 C 
BRANCH  44  45
ATOM     45  C   UNL     1     -12.608   9.548  71.608  1.00  0.00     0.332 C 
ATOM     46  O   UNL     1     -13.740   9.111  71.540  1.00  0.00    -0.246 OA
BRANCH  45  47
ATOM     47  O   UNL     1     -11.693   8.928  72.379  1.00  0.00    -0.457 OA
BRANCH  47  48
ATOM     48  C   UNL     1     -11.473   7.500  72.240  1.00  0.00     0.268 C 
BRANCH  48  49
ATOM     49  C   UNL     1     -10.898   7.210  70.877  1.00  0.00    -0.010 A 
ATOM     50  C   UNL     1      -9.709   7.797  70.490  1.00  0.00     0.007 A 
ATOM     51  C   UNL     1     -11.559   6.354  70.017  1.00  0.00     0.007 A 
ATOM     52  C   UNL     1      -9.182   7.532  69.240  1.00  0.00     0.000 A 
ATOM     53  C   UNL     1     -11.035   6.091  68.765  1.00  0.00     0.000 A 
ATOM     54  C   UNL     1      -9.845   6.679  68.377  1.00  0.00     0.000 A 
ENDBRANCH  48  49
ENDBRANCH  47  48
ENDBRANCH  45  47
ENDBRANCH  44  45
ENDBRANCH  34  43
ENDBRANCH   3  34
TORSDOF 18

ENDMDL
MODEL 2
REMARK VINA RESULT:    -7.011      1.485      2.301
REMARK INTER + INTRA:         -18.829
REMARK INTER:                 -15.489
REMARK INTRA:                  -3.341
REMARK UNBOUND:                -4.441
REMARK SMILES Cc1cc(C(=O)N[C@@H](C)C(=O)N[C@H](C(=O)N[C@@H](CC(C)C)C(=O)N[C@H](/C=C/C(=O)OCc2ccccc2)C[C@@H]2CCNC2=O)C(C)C)no1
REMARK SMILES IDX 22 1 23 2 24 3 17 5 16 6 14 7 15 8 13 10 12 11 10 12 11 13
REMARK SMILES IDX 8 15 9 16 7 17 5 18 6 19 4 21 1 22 2 23 3 24 49 25 48 26
REMARK SMILES IDX 45 27 46 28 47 29 18 30 19 31 20 32 21 33 25 34 38 35 39 36
REMARK SMILES IDX 40 37 43 38 41 39 42 40 44 41 26 43 27 44 28 45 29 46 30 47
REMARK SMILES IDX 31 48 32 49 33 50 37 51 34 52 36 53 35 54
REMARK H PARENT 24 4 16 9 12 14 7 20 42 42
REMARK INDEX MAP 27 1 28 2 29 3 79 4 22 5 21 6 19 7 20 8 68 9 15 10 14 11
REMARK INDEX MAP 12 12 13 13 59 14 10 15 11 16 9 17 7 18 8 19 54 20 4 21 1 22
REMARK INDEX MAP 2 23 3 24 6 25 5 26 16 27 17 28 18 29 23 30 24 31 25 32 26 33
REMARK INDEX MAP 30 34 31 35 32 36 33 37 36 38 34 39 35 40 37 41 88 42 38 43
REMARK INDEX MAP 39 44 40 45 41 46 42 47 43 48 44 49 45 50 49 51 46 52 48 53
REMARK INDEX MAP 47 54
REMARK Flexibility Score: inf
ROOT
ATOM      1  C   UNL     1     -11.338  14.029  69.318  1.00  0.00     0.234 C 
ATOM      2  O   UNL     1     -12.439  13.616  69.024  1.00  0.00    -0.274 OA
ATOM      3  N   UNL     1     -10.237  13.366  68.909  1.00  0.00    -0.307 N 
ATOM      4  H   UNL     1      -9.347  13.658  69.209  1.00  0.00     0.149 HD
ENDROOT
BRANCH   1   5
ATOM      5  C   UNL     1     -11.199  15.283  70.142  1.00  0.00     0.159 C 
BRANCH   5   6
ATOM      6  N   UNL     1     -10.982  16.428  69.254  1.00  0.00    -0.302 N 
ATOM      7  C   UNL     1      -9.729  16.833  68.972  1.00  0.00     0.234 C 
ATOM      8  O   UNL     1      -8.780  16.184  69.359  1.00  0.00    -0.274 OA
ATOM      9  H   UNL     1     -11.752  16.902  68.864  1.00  0.00     0.150 HD
BRANCH   7  10
ATOM     10  C   UNL     1      -9.505  18.093  68.175  1.00  0.00     0.161 C 
BRANCH  10  11
ATOM     11  N   UNL     1      -8.144  18.092  67.631  1.00  0.00    -0.302 N 
ATOM     12  C   UNL     1      -7.237  18.982  68.081  1.00  0.00     0.234 C 
ATOM     13  O   UNL     1      -7.548  19.784  68.937  1.00  0.00    -0.274 OA
ATOM     14  H   UNL     1      -7.892  17.441  66.938  1.00  0.00     0.150 HD
BRANCH  12  15
ATOM     15  C   UNL     1      -5.839  18.980  67.522  1.00  0.00     0.156 C 
ATOM     16  C   UNL     1      -5.596  17.678  66.756  1.00  0.00     0.038 C 
BRANCH  15  17
ATOM     17  N   UNL     1      -4.874  19.087  68.620  1.00  0.00    -0.299 N 
ATOM     18  C   UNL     1      -4.047  20.150  68.689  1.00  0.00     0.266 C 
ATOM     19  O   UNL     1      -4.100  21.017  67.840  1.00  0.00    -0.268 OA
ATOM     20  H   UNL     1      -4.831  18.384  69.308  1.00  0.00     0.150 HD
BRANCH  18  21
ATOM     21  C   UNL     1      -3.070  20.258  69.801  1.00  0.00     0.168 A 
ATOM     22  C   UNL     1      -0.299  21.628  71.771  1.00  0.00     0.089 C 
ATOM     23  C   UNL     1      -1.451  20.911  71.118  1.00  0.00     0.135 A 
ATOM     24  C   UNL     1      -2.064  21.251  69.960  1.00  0.00     0.080 A 
ATOM     25  O   UNL     1      -2.065  19.806  71.567  1.00  0.00    -0.359 OA
ATOM     26  N   UNL     1      -2.961  19.460  70.833  1.00  0.00    -0.073 NA
ENDBRANCH  18  21
ENDBRANCH  15  17
ENDBRANCH  12  15
ENDBRANCH  10  11
BRANCH  10  27
ATOM     27  C   UNL     1     -10.513  18.156  67.027  1.00  0.00     0.012 C 
ATOM     28  C   UNL     1     -10.547  19.574  66.455  1.00  0.00     0.009 C 
ATOM     29  C   UNL     1     -10.097  17.175  65.929  1.00  0.00     0.009 C 
ENDBRANCH  10  27
ENDBRANCH   7  10
ENDBRANCH   5   6
BRANCH   5  30
ATOM     30  C   UNL     1     -12.477  15.504  70.954  1.00  0.00     0.034 C 
BRANCH  30  31
ATOM     31  C   UNL     1     -12.302  14.909  72.352  1.00  0.00    -0.015 C 
ATOM     32  C   UNL     1     -12.353  16.028  73.393  1.00  0.00     0.007 C 
ATOM     33  C   UNL     1     -13.426  13.907  72.625  1.00  0.00     0.007 C 
ENDBRANCH  30  31
ENDBRANCH   5  30
ENDBRANCH   1   5
BRANCH   3  34
ATOM     34  C   UNL     1     -10.367  12.211  68.018  1.00  0.00     0.097 C 
BRANCH  34  35
ATOM     35  C   UNL     1      -9.960  12.615  66.598  1.00  0.00     0.039 C 
BRANCH  35  36
ATOM     36  C   UNL     1     -11.084  12.255  65.624  1.00  0.00     0.078 C 
ATOM     37  C   UNL     1     -10.505  11.604  64.346  1.00  0.00     0.031 C 
ATOM     38  C   UNL     1     -11.775  13.505  65.128  1.00  0.00     0.216 C 
ATOM     39  C   UNL     1     -11.439  12.170  63.254  1.00  0.00     0.105 C 
ATOM     40  N   UNL     1     -11.955  13.434  63.795  1.00  0.00    -0.315 N 
ATOM     41  O   UNL     1     -12.116  14.437  65.825  1.00  0.00    -0.276 OA
ATOM     42  H   UNL     1     -12.377  14.138  63.252  1.00  0.00     0.149 HD
ENDBRANCH  35  36
ENDBRANCH  34  35
BRANCH  34  43
ATOM     43  C   UNL     1      -9.470  11.101  68.500  1.00  0.00     0.002 C 
ATOM     44  C   UNL     1      -9.954   9.869  68.639  1.00  0.00     0.089 C 
BRANCH  44  45
ATOM     45  C   UNL     1      -9.080   8.785  69.110  1.00  0.00     0.332 C 
ATOM     46  O   UNL     1      -8.054   8.527  68.510  1.00  0.00    -0.246 OA
BRANCH  45  47
ATOM     47  O   UNL     1      -9.414   8.078  70.207  1.00  0.00    -0.457 OA
BRANCH  47  48
ATOM     48  C   UNL     1      -9.881   8.763  71.399  1.00  0.00     0.268 C 
BRANCH  48  49
ATOM     49  C   UNL     1     -11.379   8.638  71.496  1.00  0.00    -0.010 A 
ATOM     50  C   UNL     1     -11.975   7.393  71.416  1.00  0.00     0.007 A 
ATOM     51  C   UNL     1     -12.157   9.767  71.670  1.00  0.00     0.007 A 
ATOM     52  C   UNL     1     -13.349   7.278  71.505  1.00  0.00     0.000 A 
ATOM     53  C   UNL     1     -13.532   9.652  71.755  1.00  0.00     0.000 A 
ATOM     54  C   UNL     1     -14.129   8.407  71.674  1.00  0.00     0.000 A 
ENDBRANCH  48  49
ENDBRANCH  47  48
ENDBRANCH  45  47
ENDBRANCH  44  45
ENDBRANCH  34  43
ENDBRANCH   3  34
TORSDOF 18

ENDMDL
MODEL 3
REMARK VINA RESULT:    -6.849      3.004      8.560
REMARK INTER + INTRA:         -18.497
REMARK INTER:                 -14.554
REMARK INTRA:                  -3.943
REMARK UNBOUND:                -4.441
REMARK SMILES Cc1cc(C(=O)N[C@@H](C)C(=O)N[C@H](C(=O)N[C@@H](CC(C)C)C(=O)N[C@H](/C=C/C(=O)OCc2ccccc2)C[C@@H]2CCNC2=O)C(C)C)no1
REMARK SMILES IDX 22 1 23 2 24 3 17 5 16 6 14 7 15 8 13 10 12 11 10 12 11 13
REMARK SMILES IDX 8 15 9 16 7 17 5 18 6 19 4 21 1 22 2 23 3 24 49 25 48 26
REMARK SMILES IDX 45 27 46 28 47 29 18 30 19 31 20 32 21 33 25 34 38 35 39 36
REMARK SMILES IDX 40 37 43 38 41 39 42 40 44 41 26 43 27 44 28 45 29 46 30 47
REMARK SMILES IDX 31 48 32 49 33 50 37 51 34 52 36 53 35 54
REMARK H PARENT 24 4 16 9 12 14 7 20 42 42
REMARK INDEX MAP 27 1 28 2 29 3 79 4 22 5 21 6 19 7 20 8 68 9 15 10 14 11
REMARK INDEX MAP 12 12 13 13 59 14 10 15 11 16 9 17 7 18 8 19 54 20 4 21 1 22
REMARK INDEX MAP 2 23 3 24 6 25 5 26 16 27 17 28 18 29 23 30 24 31 25 32 26 33
REMARK INDEX MAP 30 34 31 35 32 36 33 37 36 38 34 39 35 40 37 41 88 42 38 43
REMARK INDEX MAP 39 44 40 45 41 46 42 47 43 48 44 49 45 50 49 51 46 52 48 53
REMARK INDEX MAP 47 54
REMARK Flexibility Score: inf
ROOT
ATOM      1  C   UNL     1     -10.933  15.012  68.965  1.00  0.00     0.234 C 
ATOM      2  O   UNL     1      -9.808  15.242  69.354  1.00  0.00    -0.274 OA
ATOM      3  N   UNL     1     -11.296  15.352  67.711  1.00  0.00    -0.307 N 
ATOM      4  H   UNL     1     -12.228  15.234  67.419  1.00  0.00     0.149 HD
ENDROOT
BRANCH   1   5
ATOM      5  C   UNL     1     -11.926  14.347  69.882  1.00  0.00     0.159 C 
BRANCH   5   6
ATOM      6  N   UNL     1     -11.483  12.981  70.173  1.00  0.00    -0.302 N 
ATOM      7  C   UNL     1     -11.703  11.996  69.281  1.00  0.00     0.234 C 
ATOM      8  O   UNL     1     -12.165  12.258  68.190  1.00  0.00    -0.274 OA
ATOM      9  H   UNL     1     -11.024  12.783  71.022  1.00  0.00     0.150 HD
BRANCH   7  10
ATOM     10  C   UNL     1     -11.376  10.569  69.637  1.00  0.00     0.161 C 
BRANCH  10  11
ATOM     11  N   UNL     1      -9.933  10.351  69.506  1.00  0.00    -0.302 N 
ATOM     12  C   UNL     1      -9.434   9.800  68.382  1.00  0.00     0.234 C 
ATOM     13  O   UNL     1     -10.180   9.485  67.478  1.00  0.00    -0.274 OA
ATOM     14  H   UNL     1      -9.329  10.606  70.239  1.00  0.00     0.150 HD
BRANCH  12  15
ATOM     15  C   UNL     1      -7.951   9.576  68.247  1.00  0.00     0.156 C 
ATOM     16  C   UNL     1      -7.488   8.571  69.303  1.00  0.00     0.038 C 
BRANCH  15  17
ATOM     17  N   UNL     1      -7.246  10.846  68.440  1.00  0.00    -0.299 N 
ATOM     18  C   UNL     1      -6.832  11.556  67.372  1.00  0.00     0.266 C 
ATOM     19  O   UNL     1      -7.042  11.142  66.249  1.00  0.00    -0.268 OA
ATOM     20  H   UNL     1      -7.076  11.181  69.350  1.00  0.00     0.150 HD
BRANCH  18  21
ATOM     21  C   UNL     1      -6.118  12.842  67.567  1.00  0.00     0.168 A 
ATOM     22  C   UNL     1      -3.437  15.122  68.593  1.00  0.00     0.089 C 
ATOM     23  C   UNL     1      -4.643  14.366  68.101  1.00  0.00     0.135 A 
ATOM     24  C   UNL     1      -4.839  13.028  68.162  1.00  0.00     0.080 A 
ATOM     25  O   UNL     1      -5.734  14.888  67.521  1.00  0.00    -0.359 OA
ATOM     26  N   UNL     1      -6.538  14.035  67.226  1.00  0.00    -0.073 NA
ENDBRANCH  18  21
ENDBRANCH  15  17
ENDBRANCH  12  15
ENDBRANCH  10  11
BRANCH  10  27
ATOM     27  C   UNL     1     -11.805  10.292  71.080  1.00  0.00     0.012 C 
ATOM     28  C   UNL     1     -13.281   9.892  71.104  1.00  0.00     0.009 C 
ATOM     29  C   UNL     1     -10.959   9.154  71.654  1.00  0.00     0.009 C 
ENDBRANCH  10  27
ENDBRANCH   7  10
ENDBRANCH   5   6
BRANCH   5  30
ATOM     30  C   UNL     1     -12.026  15.139  71.187  1.00  0.00     0.034 C 
BRANCH  30  31
ATOM     31  C   UNL     1     -13.063  14.486  72.102  1.00  0.00    -0.015 C 
ATOM     32  C   UNL     1     -12.844  14.960  73.540  1.00  0.00     0.007 C 
ATOM     33  C   UNL     1     -14.468  14.881  71.644  1.00  0.00     0.007 C 
ENDBRANCH  30  31
ENDBRANCH   5  30
ENDBRANCH   1   5
BRANCH   3  34
ATOM     34  C   UNL     1     -10.301  15.896  66.783  1.00  0.00     0.097 C 
BRANCH  34  35
ATOM     35  C   UNL     1     -10.611  15.414  65.364  1.00  0.00     0.039 C 
BRANCH  35  36
ATOM     36  C   UNL     1     -11.185  13.998  65.421  1.00  0.00     0.078 C 
ATOM     37  C   UNL     1     -10.045  12.954  65.475  1.00  0.00     0.031 C 
ATOM     38  C   UNL     1     -11.927  13.675  64.143  1.00  0.00     0.216 C 
ATOM     39  C   UNL     1     -10.627  11.807  64.619  1.00  0.00     0.105 C 
ATOM     40  N   UNL     1     -11.589  12.444  63.712  1.00  0.00    -0.315 N 
ATOM     41  O   UNL     1     -12.708  14.415  63.584  1.00  0.00    -0.276 OA
ATOM     42  H   UNL     1     -11.942  12.025  62.894  1.00  0.00     0.149 HD
ENDBRANCH  35  36
ENDBRANCH  34  35
BRANCH  34  43
ATOM     43  C   UNL     1     -10.349  17.402  66.823  1.00  0.00     0.002 C 
ATOM     44  C   UNL     1      -9.270  18.109  66.497  1.00  0.00     0.089 C 
BRANCH  44  45
ATOM     45  C   UNL     1      -9.315  19.578  66.536  1.00  0.00     0.332 C 
ATOM     46  O   UNL     1     -10.226  20.173  65.994  1.00  0.00    -0.246 OA
BRANCH  45  47
ATOM     47  O   UNL     1      -8.347  20.266  67.174  1.00  0.00    -0.457 OA
BRANCH  47  48
ATOM     48  C   UNL     1      -6.968  20.157  66.733  1.00  0.00     0.268 C 
BRANCH  48  49
ATOM     49  C   UNL     1      -6.120  19.630  67.862  1.00  0.00    -0.010 A 
ATOM     50  C   UNL     1      -6.428  18.418  68.451  1.00  0.00     0.007 A 
ATOM     51  C   UNL     1      -5.032  20.358  68.307  1.00  0.00     0.007 A 
ATOM     52  C   UNL     1      -5.651  17.935  69.486  1.00  0.00     0.000 A 
ATOM     53  C   UNL     1      -4.257  19.877  69.345  1.00  0.00     0.000 A 
ATOM     54  C   UNL     1      -4.565  18.664  69.935  1.00  0.00     0.000 A 
ENDBRANCH  48  49
ENDBRANCH  47  48
ENDBRANCH  45  47
ENDBRANCH  44  45
ENDBRANCH  34  43
ENDBRANCH   3  34
TORSDOF 18

ENDMDL
MODEL 4
REMARK VINA RESULT:    -6.799      3.117     10.870
REMARK INTER + INTRA:         -18.395
REMARK INTER:                 -15.040
REMARK INTRA:                  -3.355
REMARK UNBOUND:                -4.441
REMARK SMILES Cc1cc(C(=O)N[C@@H](C)C(=O)N[C@H](C(=O)N[C@@H](CC(C)C)C(=O)N[C@H](/C=C/C(=O)OCc2ccccc2)C[C@@H]2CCNC2=O)C(C)C)no1
REMARK SMILES IDX 22 1 23 2 24 3 17 5 16 6 14 7 15 8 13 10 12 11 10 12 11 13
REMARK SMILES IDX 8 15 9 16 7 17 5 18 6 19 4 21 1 22 2 23 3 24 49 25 48 26
REMARK SMILES IDX 45 27 46 28 47 29 18 30 19 31 20 32 21 33 25 34 38 35 39 36
REMARK SMILES IDX 40 37 43 38 41 39 42 40 44 41 26 43 27 44 28 45 29 46 30 47
REMARK SMILES IDX 31 48 32 49 33 50 37 51 34 52 36 53 35 54
REMARK H PARENT 24 4 16 9 12 14 7 20 42 42
REMARK INDEX MAP 27 1 28 2 29 3 79 4 22 5 21 6 19 7 20 8 68 9 15 10 14 11
REMARK INDEX MAP 12 12 13 13 59 14 10 15 11 16 9 17 7 18 8 19 54 20 4 21 1 22
REMARK INDEX MAP 2 23 3 24 6 25 5 26 16 27 17 28 18 29 23 30 24 31 25 32 26 33
REMARK INDEX MAP 30 34 31 35 32 36 33 37 36 38 34 39 35 40 37 41 88 42 38 43
REMARK INDEX MAP 39 44 40 45 41 46 42 47 43 48 44 49 45 50 49 51 46 52 48 53
REMARK INDEX MAP 47 54
REMARK Flexibility Score: inf
ROOT
ATOM      1  C   UNL     1     -11.442  14.112  68.720  1.00  0.00     0.234 C 
ATOM      2  O   UNL     1     -12.052  14.466  67.734  1.00  0.00    -0.274 OA
ATOM      3  N   UNL     1     -10.208  14.599  68.960  1.00  0.00    -0.307 N 
ATOM      4  H   UNL     1      -9.682  14.257  69.719  1.00  0.00     0.149 HD
ENDROOT
BRANCH   1   5
ATOM      5  C   UNL     1     -12.062  13.126  69.677  1.00  0.00     0.159 C 
BRANCH   5   6
ATOM      6  N   UNL     1     -11.222  11.928  69.756  1.00  0.00    -0.302 N 
ATOM      7  C   UNL     1     -11.412  10.914  68.891  1.00  0.00     0.234 C 
ATOM      8  O   UNL     1     -12.200  11.036  67.977  1.00  0.00    -0.274 OA
ATOM      9  H   UNL     1     -10.518  11.865  70.442  1.00  0.00     0.150 HD
BRANCH   7  10
ATOM     10  C   UNL     1     -10.647   9.626  69.059  1.00  0.00     0.161 C 
BRANCH  10  11
ATOM     11  N   UNL     1     -11.533   8.600  69.616  1.00  0.00    -0.302 N 
ATOM     12  C   UNL     1     -11.961   8.699  70.890  1.00  0.00     0.234 C 
ATOM     13  O   UNL     1     -11.613   9.638  71.576  1.00  0.00    -0.274 OA
ATOM     14  H   UNL     1     -11.815   7.839  69.059  1.00  0.00     0.150 HD
BRANCH  12  15
ATOM     15  C   UNL     1     -12.872   7.644  71.462  1.00  0.00     0.156 C 
ATOM     16  C   UNL     1     -14.197   8.285  71.880  1.00  0.00     0.038 C 
BRANCH  15  17
ATOM     17  N   UNL     1     -12.235   7.033  72.632  1.00  0.00    -0.299 N 
ATOM     18  C   UNL     1     -11.333   6.045  72.468  1.00  0.00     0.266 C 
ATOM     19  O   UNL     1     -11.048   5.661  71.351  1.00  0.00    -0.268 OA
ATOM     20  H   UNL     1     -12.467   7.343  73.537  1.00  0.00     0.150 HD
BRANCH  18  21
ATOM     21  C   UNL     1     -10.688   5.425  73.653  1.00  0.00     0.168 A 
ATOM     22  C   UNL     1      -9.021   5.246  76.912  1.00  0.00     0.089 C 
ATOM     23  C   UNL     1      -9.692   5.100  75.571  1.00  0.00     0.135 A 
ATOM     24  C   UNL     1     -10.157   6.100  74.787  1.00  0.00     0.080 A 
ATOM     25  O   UNL     1      -9.939   3.954  74.920  1.00  0.00    -0.359 OA
ATOM     26  N   UNL     1     -10.495   4.147  73.865  1.00  0.00    -0.073 NA
ENDBRANCH  18  21
ENDBRANCH  15  17
ENDBRANCH  12  15
ENDBRANCH  10  11
BRANCH  10  27
ATOM     27  C   UNL     1     -10.123   9.164  67.698  1.00  0.00     0.012 C 
ATOM     28  C   UNL     1      -8.724   9.738  67.469  1.00  0.00     0.009 C 
ATOM     29  C   UNL     1     -10.058   7.636  67.669  1.00  0.00     0.009 C 
ENDBRANCH  10  27
ENDBRANCH   7  10
ENDBRANCH   5   6
BRANCH   5  30
ATOM     30  C   UNL     1     -12.172  13.763  71.064  1.00  0.00     0.034 C 
BRANCH  30  31
ATOM     31  C   UNL     1     -12.868  15.121  70.947  1.00  0.00    -0.015 C 
ATOM     32  C   UNL     1     -14.256  15.039  71.584  1.00  0.00     0.007 C 
ATOM     33  C   UNL     1     -12.037  16.183  71.669  1.00  0.00     0.007 C 
ENDBRANCH  30  31
ENDBRANCH   5  30
ENDBRANCH   1   5
BRANCH   3  34
ATOM     34  C   UNL     1      -9.649  15.639  68.092  1.00  0.00     0.097 C 
BRANCH  34  35
ATOM     35  C   UNL     1     -10.305  16.983  68.419  1.00  0.00     0.039 C 
BRANCH  35  36
ATOM     36  C   UNL     1      -9.613  18.094  67.628  1.00  0.00     0.078 C 
ATOM     37  C   UNL     1      -9.876  19.470  68.283  1.00  0.00     0.031 C 
ATOM     38  C   UNL     1     -10.217  18.215  66.246  1.00  0.00     0.216 C 
ATOM     39  C   UNL     1     -10.003  20.388  67.047  1.00  0.00     0.105 C 
ATOM     40  N   UNL     1     -10.432  19.511  65.950  1.00  0.00    -0.315 N 
ATOM     41  O   UNL     1     -10.473  17.284  65.513  1.00  0.00    -0.276 OA
ATOM     42  H   UNL     1     -10.826  19.831  65.107  1.00  0.00     0.149 HD
ENDBRANCH  35  36
ENDBRANCH  34  35
BRANCH  34  43
ATOM     43  C   UNL     1      -8.163  15.738  68.319  1.00  0.00     0.002 C 
ATOM     44  C   UNL     1      -7.645  15.381  69.491  1.00  0.00     0.089 C 
BRANCH  44  45
ATOM     45  C   UNL     1      -6.195  15.477  69.713  1.00  0.00     0.332 C 
ATOM     46  O   UNL     1      -5.520  14.468  69.770  1.00  0.00    -0.246 OA
BRANCH  45  47
ATOM     47  O   UNL     1      -5.613  16.684  69.853  1.00  0.00    -0.457 OA
BRANCH  47  48
ATOM     48  C   UNL     1      -4.639  17.139  68.877  1.00  0.00     0.268 C 
BRANCH  48  49
ATOM     49  C   UNL     1      -5.326  17.988  67.839  1.00  0.00    -0.010 A 
ATOM     50  C   UNL     1      -5.705  19.282  68.146  1.00  0.00     0.007 A 
ATOM     51  C   UNL     1      -5.573  17.476  66.580  1.00  0.00     0.007 A 
ATOM     52  C   UNL     1      -6.335  20.061  67.194  1.00  0.00     0.000 A 
ATOM     53  C   UNL     1      -6.207  18.253  65.629  1.00  0.00     0.000 A 
ATOM     54  C   UNL     1      -6.587  19.547  65.936  1.00  0.00     0.000 A 
ENDBRANCH  48  49
ENDBRANCH  47  48
ENDBRANCH  45  47
ENDBRANCH  44  45
ENDBRANCH  34  43
ENDBRANCH   3  34
TORSDOF 18

ENDMDL
MODEL 5
REMARK VINA RESULT:    -6.689      2.672      3.778
REMARK INTER + INTRA:         -18.169
REMARK INTER:                 -14.706
REMARK INTRA:                  -3.463
REMARK UNBOUND:                -4.441
REMARK SMILES Cc1cc(C(=O)N[C@@H](C)C(=O)N[C@H](C(=O)N[C@@H](CC(C)C)C(=O)N[C@H](/C=C/C(=O)OCc2ccccc2)C[C@@H]2CCNC2=O)C(C)C)no1
REMARK SMILES IDX 22 1 23 2 24 3 17 5 16 6 14 7 15 8 13 10 12 11 10 12 11 13
REMARK SMILES IDX 8 15 9 16 7 17 5 18 6 19 4 21 1 22 2 23 3 24 49 25 48 26
REMARK SMILES IDX 45 27 46 28 47 29 18 30 19 31 20 32 21 33 25 34 38 35 39 36
REMARK SMILES IDX 40 37 43 38 41 39 42 40 44 41 26 43 27 44 28 45 29 46 30 47
REMARK SMILES IDX 31 48 32 49 33 50 37 51 34 52 36 53 35 54
REMARK H PARENT 24 4 16 9 12 14 7 20 42 42
REMARK INDEX MAP 27 1 28 2 29 3 79 4 22 5 21 6 19 7 20 8 68 9 15 10 14 11
REMARK INDEX MAP 12 12 13 13 59 14 10 15 11 16 9 17 7 18 8 19 54 20 4 21 1 22
REMARK INDEX MAP 2 23 3 24 6 25 5 26 16 27 17 28 18 29 23 30 24 31 25 32 26 33
REMARK INDEX MAP 30 34 31 35 32 36 33 37 36 38 34 39 35 40 37 41 88 42 38 43
REMARK INDEX MAP 39 44 40 45 41 46 42 47 43 48 44 49 45 50 49 51 46 52 48 53
REMARK INDEX MAP 47 54
REMARK Flexibility Score: inf
ROOT
ATOM      1  C   UNL     1     -11.312  14.472  68.320  1.00  0.00     0.234 C 
ATOM      2  O   UNL     1     -12.290  14.702  67.643  1.00  0.00    -0.274 OA
ATOM      3  N   UNL     1     -10.544  13.396  68.053  1.00  0.00    -0.307 N 
ATOM      4  H   UNL     1      -9.793  13.167  68.646  1.00  0.00     0.149 HD
ENDROOT
BRANCH   1   5
ATOM      5  C   UNL     1     -10.953  15.388  69.462  1.00  0.00     0.159 C 
BRANCH   5   6
ATOM      6  N   UNL     1     -10.395  16.634  68.931  1.00  0.00    -0.302 N 
ATOM      7  C   UNL     1      -9.098  16.693  68.573  1.00  0.00     0.234 C 
ATOM      8  O   UNL     1      -8.420  15.688  68.583  1.00  0.00    -0.274 OA
ATOM      9  H   UNL     1     -10.969  17.429  68.836  1.00  0.00     0.150 HD
BRANCH   7  10
ATOM     10  C   UNL     1      -8.489  18.009  68.161  1.00  0.00     0.161 C 
BRANCH  10  11
ATOM     11  N   UNL     1      -7.034  17.945  68.323  1.00  0.00    -0.302 N 
ATOM     12  C   UNL     1      -6.403  18.838  69.112  1.00  0.00     0.234 C 
ATOM     13  O   UNL     1      -7.041  19.695  69.688  1.00  0.00    -0.274 OA
ATOM     14  H   UNL     1      -6.517  17.250  67.856  1.00  0.00     0.150 HD
BRANCH  12  15
ATOM     15  C   UNL     1      -4.908  18.772  69.278  1.00  0.00     0.156 C 
ATOM     16  C   UNL     1      -4.230  19.385  68.051  1.00  0.00     0.038 C 
BRANCH  15  17
ATOM     17  N   UNL     1      -4.493  17.374  69.417  1.00  0.00    -0.299 N 
ATOM     18  C   UNL     1      -4.611  16.752  70.607  1.00  0.00     0.266 C 
ATOM     19  O   UNL     1      -5.059  17.351  71.564  1.00  0.00    -0.268 OA
ATOM     20  H   UNL     1      -4.130  16.888  68.641  1.00  0.00     0.150 HD
BRANCH  18  21
ATOM     21  C   UNL     1      -4.191  15.335  70.748  1.00  0.00     0.168 A 
ATOM     22  C   UNL     1      -4.457  11.778  71.595  1.00  0.00     0.089 C 
ATOM     23  C   UNL     1      -4.143  13.192  71.180  1.00  0.00     0.135 A 
ATOM     24  C   UNL     1      -4.968  14.261  71.266  1.00  0.00     0.080 A 
ATOM     25  O   UNL     1      -2.990  13.637  70.660  1.00  0.00    -0.359 OA
ATOM     26  N   UNL     1      -3.032  14.821  70.421  1.00  0.00    -0.073 NA
ENDBRANCH  18  21
ENDBRANCH  15  17
ENDBRANCH  12  15
ENDBRANCH  10  11
BRANCH  10  27
ATOM     27  C   UNL     1      -8.828  18.291  66.696  1.00  0.00     0.012 C 
ATOM     28  C   UNL     1      -9.603  19.605  66.597  1.00  0.00     0.009 C 
ATOM     29  C   UNL     1      -7.535  18.400  65.886  1.00  0.00     0.009 C 
ENDBRANCH  10  27
ENDBRANCH   7  10
ENDBRANCH   5   6
BRANCH   5  30
ATOM     30  C   UNL     1     -12.208  15.699  70.280  1.00  0.00     0.034 C 
BRANCH  30  31
ATOM     31  C   UNL     1     -12.102  15.031  71.651  1.00  0.00    -0.015 C 
ATOM     32  C   UNL     1     -12.123  16.102  72.743  1.00  0.00     0.007 C 
ATOM     33  C   UNL     1     -13.283  14.079  71.849  1.00  0.00     0.007 C 
ENDBRANCH  30  31
ENDBRANCH   5  30
ENDBRANCH   1   5
BRANCH   3  34
ATOM     34  C   UNL     1     -10.827  12.569  66.877  1.00  0.00     0.097 C 
BRANCH  34  35
ATOM     35  C   UNL     1      -9.933  13.010  65.716  1.00  0.00     0.039 C 
BRANCH  35  36
ATOM     36  C   UNL     1     -10.747  13.020  64.421  1.00  0.00     0.078 C 
ATOM     37  C   UNL     1     -12.255  12.864  64.729  1.00  0.00     0.031 C 
ATOM     38  C   UNL     1     -10.411  11.812  63.575  1.00  0.00     0.216 C 
ATOM     39  C   UNL     1     -12.729  11.991  63.546  1.00  0.00     0.105 C 
ATOM     40  N   UNL     1     -11.541  11.251  63.103  1.00  0.00    -0.315 N 
ATOM     41  O   UNL     1      -9.290  11.405  63.354  1.00  0.00    -0.276 OA
ATOM     42  H   UNL     1     -11.568  10.447  62.535  1.00  0.00     0.149 HD
ENDBRANCH  35  36
ENDBRANCH  34  35
BRANCH  34  43
ATOM     43  C   UNL     1     -10.550  11.123  67.202  1.00  0.00     0.002 C 
ATOM     44  C   UNL     1      -9.334  10.752  67.594  1.00  0.00     0.089 C 
BRANCH  44  45
ATOM     45  C   UNL     1      -9.063   9.342  67.911  1.00  0.00     0.332 C 
ATOM     46  O   UNL     1      -8.298   8.700  67.219  1.00  0.00    -0.246 OA
BRANCH  45  47
ATOM     47  O   UNL     1      -9.663   8.762  68.969  1.00  0.00    -0.457 OA
BRANCH  47  48
ATOM     48  C   UNL     1      -9.520   9.341  70.293  1.00  0.00     0.268 C 
BRANCH  48  49
ATOM     49  C   UNL     1     -10.873   9.432  70.950  1.00  0.00    -0.010 A 
ATOM     50  C   UNL     1     -11.734  10.462  70.619  1.00  0.00     0.007 A 
ATOM     51  C   UNL     1     -11.255   8.485  71.882  1.00  0.00     0.007 A 
ATOM     52  C   UNL     1     -12.975  10.546  71.221  1.00  0.00     0.000 A 
ATOM     53  C   UNL     1     -12.494   8.571  72.488  1.00  0.00     0.000 A 
ATOM     54  C   UNL     1     -13.355   9.602  72.157  1.00  0.00     0.000 A 
ENDBRANCH  48  49
ENDBRANCH  47  48
ENDBRANCH  45  47
ENDBRANCH  44  45
ENDBRANCH  34  43
ENDBRANCH   3  34
TORSDOF 18

ENDMDL
MODEL 6
REMARK VINA RESULT:    -6.482      3.693     10.073
REMARK INTER + INTRA:         -17.744
REMARK INTER:                 -14.549
REMARK INTRA:                  -3.195
REMARK UNBOUND:                -4.441
REMARK SMILES Cc1cc(C(=O)N[C@@H](C)C(=O)N[C@H](C(=O)N[C@@H](CC(C)C)C(=O)N[C@H](/C=C/C(=O)OCc2ccccc2)C[C@@H]2CCNC2=O)C(C)C)no1
REMARK SMILES IDX 22 1 23 2 24 3 17 5 16 6 14 7 15 8 13 10 12 11 10 12 11 13
REMARK SMILES IDX 8 15 9 16 7 17 5 18 6 19 4 21 1 22 2 23 3 24 49 25 48 26
REMARK SMILES IDX 45 27 46 28 47 29 18 30 19 31 20 32 21 33 25 34 38 35 39 36
REMARK SMILES IDX 40 37 43 38 41 39 42 40 44 41 26 43 27 44 28 45 29 46 30 47
REMARK SMILES IDX 31 48 32 49 33 50 37 51 34 52 36 53 35 54
REMARK H PARENT 24 4 16 9 12 14 7 20 42 42
REMARK INDEX MAP 27 1 28 2 29 3 79 4 22 5 21 6 19 7 20 8 68 9 15 10 14 11
REMARK INDEX MAP 12 12 13 13 59 14 10 15 11 16 9 17 7 18 8 19 54 20 4 21 1 22
REMARK INDEX MAP 2 23 3 24 6 25 5 26 16 27 17 28 18 29 23 30 24 31 25 32 26 33
REMARK INDEX MAP 30 34 31 35 32 36 33 37 36 38 34 39 35 40 37 41 88 42 38 43
REMARK INDEX MAP 39 44 40 45 41 46 42 47 43 48 44 49 45 50 49 51 46 52 48 53
REMARK INDEX MAP 47 54
REMARK Flexibility Score: inf
ROOT
ATOM      1  C   UNL     1     -10.671  14.340  68.183  1.00  0.00     0.234 C 
ATOM      2  O   UNL     1      -9.463  14.298  68.284  1.00  0.00    -0.274 OA
ATOM      3  N   UNL     1     -11.236  14.831  67.061  1.00  0.00    -0.307 N 
ATOM      4  H   UNL     1     -12.213  14.934  67.008  1.00  0.00     0.149 HD
ENDROOT
BRANCH   1   5
ATOM      5  C   UNL     1     -11.540  13.844  69.310  1.00  0.00     0.159 C 
BRANCH   5   6
ATOM      6  N   UNL     1     -11.147  12.478  69.664  1.00  0.00    -0.302 N 
ATOM      7  C   UNL     1     -11.593  11.438  68.934  1.00  0.00     0.234 C 
ATOM      8  O   UNL     1     -12.225  11.636  67.918  1.00  0.00    -0.274 OA
ATOM      9  H   UNL     1     -10.557  12.320  70.437  1.00  0.00     0.150 HD
BRANCH   7  10
ATOM     10  C   UNL     1     -11.307  10.026  69.379  1.00  0.00     0.161 C 
BRANCH  10  11
ATOM     11  N   UNL     1      -9.957   9.645  68.955  1.00  0.00    -0.302 N 
ATOM     12  C   UNL     1      -9.786   8.867  67.868  1.00  0.00     0.234 C 
ATOM     13  O   UNL     1     -10.751   8.483  67.240  1.00  0.00    -0.274 OA
ATOM     14  H   UNL     1      -9.175   9.957  69.465  1.00  0.00     0.150 HD
BRANCH  12  15
ATOM     15  C   UNL     1      -8.398   8.475  67.432  1.00  0.00     0.156 C 
ATOM     16  C   UNL     1      -7.379   8.992  68.449  1.00  0.00     0.038 C 
BRANCH  15  17
ATOM     17  N   UNL     1      -8.116   9.059  66.118  1.00  0.00    -0.299 N 
ATOM     18  C   UNL     1      -8.031   8.264  65.033  1.00  0.00     0.266 C 
ATOM     19  O   UNL     1      -8.188   7.065  65.144  1.00  0.00    -0.268 OA
ATOM     20  H   UNL     1      -7.989  10.031  66.028  1.00  0.00     0.150 HD
BRANCH  18  21
ATOM     21  C   UNL     1      -7.746   8.855  63.702  1.00  0.00     0.168 A 
ATOM     22  C   UNL     1      -6.248  11.116  61.236  1.00  0.00     0.089 C 
ATOM     23  C   UNL     1      -6.966  10.095  62.078  1.00  0.00     0.135 A 
ATOM     24  C   UNL     1      -6.882   9.951  63.421  1.00  0.00     0.080 A 
ATOM     25  O   UNL     1      -7.818   9.155  61.643  1.00  0.00    -0.359 OA
ATOM     26  N   UNL     1      -8.237   8.473  62.549  1.00  0.00    -0.073 NA
ENDBRANCH  18  21
ENDBRANCH  15  17
ENDBRANCH  12  15
ENDBRANCH  10  11
BRANCH  10  27
ATOM     27  C   UNL     1     -11.406   9.942  70.903  1.00  0.00     0.012 C 
ATOM     28  C   UNL     1     -12.877   9.968  71.320  1.00  0.00     0.009 C 
ATOM     29  C   UNL     1     -10.763   8.641  71.385  1.00  0.00     0.009 C 
ENDBRANCH  10  27
ENDBRANCH   7  10
ENDBRANCH   5   6
BRANCH   5  30
ATOM     30  C   UNL     1     -11.367  14.756  70.526  1.00  0.00     0.034 C 
BRANCH  30  31
ATOM     31  C   UNL     1     -12.742  15.131  71.082  1.00  0.00    -0.015 C 
ATOM     32  C   UNL     1     -13.471  13.865  71.535  1.00  0.00     0.007 C 
ATOM     33  C   UNL     1     -12.571  16.075  72.273  1.00  0.00     0.007 C 
ENDBRANCH  30  31
ENDBRANCH   5  30
ENDBRANCH   1   5
BRANCH   3  34
ATOM     34  C   UNL     1     -10.396  15.210  65.923  1.00  0.00     0.097 C 
BRANCH  34  35
ATOM     35  C   UNL     1     -10.968  14.599  64.641  1.00  0.00     0.039 C 
BRANCH  35  36
ATOM     36  C   UNL     1     -11.317  13.130  64.889  1.00  0.00     0.078 C 
ATOM     37  C   UNL     1     -10.030  12.292  65.076  1.00  0.00     0.031 C 
ATOM     38  C   UNL     1     -11.980  12.530  63.668  1.00  0.00     0.216 C 
ATOM     39  C   UNL     1     -10.415  10.966  64.383  1.00  0.00     0.105 C 
ATOM     40  N   UNL     1     -11.449  11.321  63.403  1.00  0.00    -0.315 N 
ATOM     41  O   UNL     1     -12.858  13.060  63.020  1.00  0.00    -0.276 OA
ATOM     42  H   UNL     1     -11.720  10.748  62.650  1.00  0.00     0.149 HD
ENDBRANCH  35  36
ENDBRANCH  34  35
BRANCH  34  43
ATOM     43  C   UNL     1     -10.370  16.711  65.795  1.00  0.00     0.002 C 
ATOM     44  C   UNL     1     -10.019  17.460  66.837  1.00  0.00     0.089 C 
BRANCH  44  45
ATOM     45  C   UNL     1      -9.994  18.924  66.714  1.00  0.00     0.332 C 
ATOM     46  O   UNL     1     -10.760  19.483  65.953  1.00  0.00    -0.246 OA
BRANCH  45  47
ATOM     47  O   UNL     1      -9.122  19.648  67.443  1.00  0.00    -0.457 OA
BRANCH  47  48
ATOM     48  C   UNL     1      -7.816  19.103  67.766  1.00  0.00     0.268 C 
BRANCH  48  49
ATOM     49  C   UNL     1      -6.837  19.464  66.678  1.00  0.00    -0.010 A 
ATOM     50  C   UNL     1      -6.176  20.677  66.719  1.00  0.00     0.007 A 
ATOM     51  C   UNL     1      -6.598  18.580  65.642  1.00  0.00     0.007 A 
ATOM     52  C   UNL     1      -5.279  21.008  65.722  1.00  0.00     0.000 A 
ATOM     53  C   UNL     1      -5.704  18.914  64.642  1.00  0.00     0.000 A 
ATOM     54  C   UNL     1      -5.043  20.127  64.682  1.00  0.00     0.000 A 
ENDBRANCH  48  49
ENDBRANCH  47  48
ENDBRANCH  45  47
ENDBRANCH  44  45
ENDBRANCH  34  43
ENDBRANCH   3  34
TORSDOF 18

ENDMDL
MODEL 7
REMARK VINA RESULT:    -6.439      2.868      6.078
REMARK INTER + INTRA:         -17.656
REMARK INTER:                 -14.065
REMARK INTRA:                  -3.591
REMARK UNBOUND:                -4.441
REMARK SMILES Cc1cc(C(=O)N[C@@H](C)C(=O)N[C@H](C(=O)N[C@@H](CC(C)C)C(=O)N[C@H](/C=C/C(=O)OCc2ccccc2)C[C@@H]2CCNC2=O)C(C)C)no1
REMARK SMILES IDX 22 1 23 2 24 3 17 5 16 6 14 7 15 8 13 10 12 11 10 12 11 13
REMARK SMILES IDX 8 15 9 16 7 17 5 18 6 19 4 21 1 22 2 23 3 24 49 25 48 26
REMARK SMILES IDX 45 27 46 28 47 29 18 30 19 31 20 32 21 33 25 34 38 35 39 36
REMARK SMILES IDX 40 37 43 38 41 39 42 40 44 41 26 43 27 44 28 45 29 46 30 47
REMARK SMILES IDX 31 48 32 49 33 50 37 51 34 52 36 53 35 54
REMARK H PARENT 24 4 16 9 12 14 7 20 42 42
REMARK INDEX MAP 27 1 28 2 29 3 79 4 22 5 21 6 19 7 20 8 68 9 15 10 14 11
REMARK INDEX MAP 12 12 13 13 59 14 10 15 11 16 9 17 7 18 8 19 54 20 4 21 1 22
REMARK INDEX MAP 2 23 3 24 6 25 5 26 16 27 17 28 18 29 23 30 24 31 25 32 26 33
REMARK INDEX MAP 30 34 31 35 32 36 33 37 36 38 34 39 35 40 37 41 88 42 38 43
REMARK INDEX MAP 39 44 40 45 41 46 42 47 43 48 44 49 45 50 49 51 46 52 48 53
REMARK INDEX MAP 47 54
REMARK Flexibility Score: inf
ROOT
ATOM      1  C   UNL     1      -8.288  12.925  68.135  1.00  0.00     0.234 C 
ATOM      2  O   UNL     1      -9.312  13.490  68.455  1.00  0.00    -0.274 OA
ATOM      3  N   UNL     1      -8.337  11.681  67.618  1.00  0.00    -0.307 N 
ATOM      4  H   UNL     1      -7.504  11.193  67.428  1.00  0.00     0.149 HD
ENDROOT
BRANCH   1   5
ATOM      5  C   UNL     1      -6.960  13.614  68.314  1.00  0.00     0.159 C 
BRANCH   5   6
ATOM      6  N   UNL     1      -7.177  15.050  68.507  1.00  0.00    -0.302 N 
ATOM      7  C   UNL     1      -6.555  15.939  67.709  1.00  0.00     0.234 C 
ATOM      8  O   UNL     1      -5.906  15.552  66.760  1.00  0.00    -0.274 OA
ATOM      9  H   UNL     1      -7.778  15.365  69.221  1.00  0.00     0.150 HD
BRANCH   7  10
ATOM     10  C   UNL     1      -6.665  17.415  67.994  1.00  0.00     0.161 C 
BRANCH  10  11
ATOM     11  N   UNL     1      -8.064  17.757  68.265  1.00  0.00    -0.302 N 
ATOM     12  C   UNL     1      -8.946  17.843  67.250  1.00  0.00     0.234 C 
ATOM     13  O   UNL     1      -8.581  17.637  66.111  1.00  0.00    -0.274 OA
ATOM     14  H   UNL     1      -8.359  17.924  69.189  1.00  0.00     0.150 HD
BRANCH  12  15
ATOM     15  C   UNL     1     -10.383  18.195  67.529  1.00  0.00     0.156 C 
ATOM     16  C   UNL     1     -10.507  19.704  67.749  1.00  0.00     0.038 C 
BRANCH  15  17
ATOM     17  N   UNL     1     -10.834  17.488  68.731  1.00  0.00    -0.299 N 
ATOM     18  C   UNL     1     -11.387  16.264  68.624  1.00  0.00     0.266 C 
ATOM     19  O   UNL     1     -11.512  15.746  67.532  1.00  0.00    -0.268 OA
ATOM     20  H   UNL     1     -10.733  17.908  69.615  1.00  0.00     0.150 HD
BRANCH  18  21
ATOM     21  C   UNL     1     -11.844  15.548  69.841  1.00  0.00     0.168 A 
ATOM     22  C   UNL     1     -12.640  15.024  73.381  1.00  0.00     0.089 C 
ATOM     23  C   UNL     1     -12.379  15.031  71.897  1.00  0.00     0.135 A 
ATOM     24  C   UNL     1     -11.897  16.063  71.166  1.00  0.00     0.080 A 
ATOM     25  O   UNL     1     -12.573  14.014  71.045  1.00  0.00    -0.359 OA
ATOM     26  N   UNL     1     -12.279  14.314  69.912  1.00  0.00    -0.073 NA
ENDBRANCH  18  21
ENDBRANCH  15  17
ENDBRANCH  12  15
ENDBRANCH  10  11
BRANCH  10  27
ATOM     27  C   UNL     1      -5.809  17.764  69.213  1.00  0.00     0.012 C 
ATOM     28  C   UNL     1      -4.332  17.760  68.816  1.00  0.00     0.009 C 
ATOM     29  C   UNL     1      -6.194  19.152  69.727  1.00  0.00     0.009 C 
ENDBRANCH  10  27
ENDBRANCH   7  10
ENDBRANCH   5   6
BRANCH   5  30
ATOM     30  C   UNL     1      -6.248  13.037  69.539  1.00  0.00     0.034 C 
BRANCH  30  31
ATOM     31  C   UNL     1      -5.501  14.156  70.268  1.00  0.00    -0.015 C 
ATOM     32  C   UNL     1      -5.748  14.036  71.773  1.00  0.00     0.007 C 
ATOM     33  C   UNL     1      -4.002  14.037  69.987  1.00  0.00     0.007 C 
ENDBRANCH  30  31
ENDBRANCH   5  30
ENDBRANCH   1   5
BRANCH   3  34
ATOM     34  C   UNL     1      -9.632  11.054  67.341  1.00  0.00     0.097 C 
BRANCH  34  35
ATOM     35  C   UNL     1      -9.662  10.567  65.890  1.00  0.00     0.039 C 
BRANCH  35  36
ATOM     36  C   UNL     1     -10.213  11.676  64.992  1.00  0.00     0.078 C 
ATOM     37  C   UNL     1     -11.584  12.165  65.514  1.00  0.00     0.031 C 
ATOM     38  C   UNL     1     -10.508  11.140  63.608  1.00  0.00     0.216 C 
ATOM     39  C   UNL     1     -12.341  12.445  64.197  1.00  0.00     0.105 C 
ATOM     40  N   UNL     1     -11.711  11.581  63.191  1.00  0.00    -0.315 N 
ATOM     41  O   UNL     1      -9.774  10.418  62.969  1.00  0.00    -0.276 OA
ATOM     42  H   UNL     1     -12.116  11.353  62.323  1.00  0.00     0.149 HD
ENDBRANCH  35  36
ENDBRANCH  34  35
BRANCH  34  43
ATOM     43  C   UNL     1      -9.832   9.882  68.267  1.00  0.00     0.002 C 
ATOM     44  C   UNL     1      -8.786   9.338  68.885  1.00  0.00     0.089 C 
BRANCH  44  45
ATOM     45  C   UNL     1      -8.980   8.195  69.788  1.00  0.00     0.332 C 
ATOM     46  O   UNL     1      -8.140   7.934  70.627  1.00  0.00    -0.246 OA
BRANCH  45  47
ATOM     47  O   UNL     1     -10.089   7.436  69.687  1.00  0.00    -0.457 OA
BRANCH  47  48
ATOM     48  C   UNL     1     -10.667   6.833  70.875  1.00  0.00     0.268 C 
BRANCH  48  49
ATOM     49  C   UNL     1     -11.889   7.611  71.290  1.00  0.00    -0.010 A 
ATOM     50  C   UNL     1     -11.780   8.954  71.600  1.00  0.00     0.007 A 
ATOM     51  C   UNL     1     -13.119   6.984  71.357  1.00  0.00     0.007 A 
ATOM     52  C   UNL     1     -12.900   9.668  71.981  1.00  0.00     0.000 A 
ATOM     53  C   UNL     1     -14.238   7.696  71.742  1.00  0.00     0.000 A 
ATOM     54  C   UNL     1     -14.130   9.040  72.053  1.00  0.00     0.000 A 
ENDBRANCH  48  49
ENDBRANCH  47  48
ENDBRANCH  45  47
ENDBRANCH  44  45
ENDBRANCH  34  43
ENDBRANCH   3  34
TORSDOF 18

ENDMDL
MODEL 8
REMARK VINA RESULT:    -6.434      3.064      7.779
REMARK INTER + INTRA:         -17.646
REMARK INTER:                 -13.313
REMARK INTRA:                  -4.333
REMARK UNBOUND:                -4.441
REMARK SMILES Cc1cc(C(=O)N[C@@H](C)C(=O)N[C@H](C(=O)N[C@@H](CC(C)C)C(=O)N[C@H](/C=C/C(=O)OCc2ccccc2)C[C@@H]2CCNC2=O)C(C)C)no1
REMARK SMILES IDX 22 1 23 2 24 3 17 5 16 6 14 7 15 8 13 10 12 11 10 12 11 13
REMARK SMILES IDX 8 15 9 16 7 17 5 18 6 19 4 21 1 22 2 23 3 24 49 25 48 26
REMARK SMILES IDX 45 27 46 28 47 29 18 30 19 31 20 32 21 33 25 34 38 35 39 36
REMARK SMILES IDX 40 37 43 38 41 39 42 40 44 41 26 43 27 44 28 45 29 46 30 47
REMARK SMILES IDX 31 48 32 49 33 50 37 51 34 52 36 53 35 54
REMARK H PARENT 24 4 16 9 12 14 7 20 42 42
REMARK INDEX MAP 27 1 28 2 29 3 79 4 22 5 21 6 19 7 20 8 68 9 15 10 14 11
REMARK INDEX MAP 12 12 13 13 59 14 10 15 11 16 9 17 7 18 8 19 54 20 4 21 1 22
REMARK INDEX MAP 2 23 3 24 6 25 5 26 16 27 17 28 18 29 23 30 24 31 25 32 26 33
REMARK INDEX MAP 30 34 31 35 32 36 33 37 36 38 34 39 35 40 37 41 88 42 38 43
REMARK INDEX MAP 39 44 40 45 41 46 42 47 43 48 44 49 45 50 49 51 46 52 48 53
REMARK INDEX MAP 47 54
REMARK Flexibility Score: inf
ROOT
ATOM      1  C   UNL     1      -6.173  12.730  67.965  1.00  0.00     0.234 C 
ATOM      2  O   UNL     1      -6.062  12.613  66.764  1.00  0.00    -0.274 OA
ATOM      3  N   UNL     1      -7.008  11.920  68.647  1.00  0.00    -0.307 N 
ATOM      4  H   UNL     1      -7.155  12.062  69.610  1.00  0.00     0.149 HD
ENDROOT
BRANCH   1   5
ATOM      5  C   UNL     1      -5.379  13.780  68.698  1.00  0.00     0.159 C 
BRANCH   5   6
ATOM      6  N   UNL     1      -6.062  15.072  68.590  1.00  0.00    -0.302 N 
ATOM      7  C   UNL     1      -5.540  16.048  67.823  1.00  0.00     0.234 C 
ATOM      8  O   UNL     1      -4.568  15.824  67.133  1.00  0.00    -0.274 OA
ATOM      9  H   UNL     1      -6.903  15.226  69.079  1.00  0.00     0.150 HD
BRANCH   7  10
ATOM     10  C   UNL     1      -6.162  17.421  67.822  1.00  0.00     0.161 C 
BRANCH  10  11
ATOM     11  N   UNL     1      -7.613  17.299  67.986  1.00  0.00    -0.302 N 
ATOM     12  C   UNL     1      -8.430  17.490  66.930  1.00  0.00     0.234 C 
ATOM     13  O   UNL     1      -7.962  17.763  65.844  1.00  0.00    -0.274 OA
ATOM     14  H   UNL     1      -7.992  17.078  68.867  1.00  0.00     0.150 HD
BRANCH  12  15
ATOM     15  C   UNL     1      -9.921  17.365  67.099  1.00  0.00     0.156 C 
ATOM     16  C   UNL     1     -10.289  17.579  68.569  1.00  0.00     0.038 C 
BRANCH  15  17
ATOM     17  N   UNL     1     -10.349  16.027  66.680  1.00  0.00    -0.299 N 
ATOM     18  C   UNL     1     -10.879  15.844  65.454  1.00  0.00     0.266 C 
ATOM     19  O   UNL     1     -11.003  16.786  64.698  1.00  0.00    -0.268 OA
ATOM     20  H   UNL     1     -10.249  15.264  67.293  1.00  0.00     0.150 HD
BRANCH  18  21
ATOM     21  C   UNL     1     -11.312  14.489  65.029  1.00  0.00     0.168 A 
ATOM     22  C   UNL     1     -10.996  11.013  63.910  1.00  0.00     0.089 C 
ATOM     23  C   UNL     1     -11.343  12.407  64.363  1.00  0.00     0.135 A 
ATOM     24  C   UNL     1     -10.474  13.400  64.662  1.00  0.00     0.080 A 
ATOM     25  O   UNL     1     -12.575  12.907  64.544  1.00  0.00    -0.359 OA
ATOM     26  N   UNL     1     -12.543  14.056  64.917  1.00  0.00    -0.073 NA
ENDBRANCH  18  21
ENDBRANCH  15  17
ENDBRANCH  12  15
ENDBRANCH  10  11
BRANCH  10  27
ATOM     27  C   UNL     1      -5.586  18.243  68.976  1.00  0.00     0.012 C 
ATOM     28  C   UNL     1      -4.165  18.687  68.624  1.00  0.00     0.009 C 
ATOM     29  C   UNL     1      -6.461  19.476  69.211  1.00  0.00     0.009 C 
ENDBRANCH  10  27
ENDBRANCH   7  10
ENDBRANCH   5   6
BRANCH   5  30
ATOM     30  C   UNL     1      -5.255  13.391  70.172  1.00  0.00     0.034 C 
BRANCH  30  31
ATOM     31  C   UNL     1      -4.248  14.313  70.861  1.00  0.00    -0.015 C 
ATOM     32  C   UNL     1      -4.996  15.343  71.709  1.00  0.00     0.007 C 
ATOM     33  C   UNL     1      -3.328  13.484  71.759  1.00  0.00     0.007 C 
ENDBRANCH  30  31
ENDBRANCH   5  30
ENDBRANCH   1   5
BRANCH   3  34
ATOM     34  C   UNL     1      -7.696  10.828  67.954  1.00  0.00     0.097 C 
BRANCH  34  35
ATOM     35  C   UNL     1      -7.230   9.487  68.527  1.00  0.00     0.039 C 
BRANCH  35  36
ATOM     36  C   UNL     1      -8.399   8.802  69.238  1.00  0.00     0.078 C 
ATOM     37  C   UNL     1      -8.008   8.431  70.687  1.00  0.00     0.031 C 
ATOM     38  C   UNL     1      -8.712   7.475  68.583  1.00  0.00     0.216 C 
ATOM     39  C   UNL     1      -8.738   7.083  70.875  1.00  0.00     0.105 C 
ATOM     40  N   UNL     1      -8.890   6.528  69.524  1.00  0.00    -0.315 N 
ATOM     41  O   UNL     1      -8.789   7.288  67.387  1.00  0.00    -0.276 OA
ATOM     42  H   UNL     1      -9.096   5.584  69.332  1.00  0.00     0.149 HD
ENDBRANCH  35  36
ENDBRANCH  34  35
BRANCH  34  43
ATOM     43  C   UNL     1      -9.184  10.967  68.151  1.00  0.00     0.002 C 
ATOM     44  C   UNL     1      -9.798  12.094  67.800  1.00  0.00     0.089 C 
BRANCH  44  45
ATOM     45  C   UNL     1     -11.248  12.231  67.992  1.00  0.00     0.332 C 
ATOM     46  O   UNL     1     -11.996  11.347  67.621  1.00  0.00    -0.246 OA
BRANCH  45  47
ATOM     47  O   UNL     1     -11.750  13.335  68.579  1.00  0.00    -0.457 OA
BRANCH  47  48
ATOM     48  C   UNL     1     -11.039  13.960  69.680  1.00  0.00     0.268 C 
BRANCH  48  49
ATOM     49  C   UNL     1     -12.022  14.370  70.746  1.00  0.00    -0.010 A 
ATOM     50  C   UNL     1     -11.936  15.625  71.318  1.00  0.00     0.007 A 
ATOM     51  C   UNL     1     -13.013  13.494  71.147  1.00  0.00     0.007 A 
ATOM     52  C   UNL     1     -12.838  16.002  72.296  1.00  0.00     0.000 A 
ATOM     53  C   UNL     1     -13.912  13.869  72.128  1.00  0.00     0.000 A 
ATOM     54  C   UNL     1     -13.826  15.124  72.701  1.00  0.00     0.000 A 
ENDBRANCH  48  49
ENDBRANCH  47  48
ENDBRANCH  45  47
ENDBRANCH  44  45
ENDBRANCH  34  43
ENDBRANCH   3  34
TORSDOF 18

ENDMDL
MODEL 9
REMARK VINA RESULT:    -6.105      3.752     10.709
REMARK INTER + INTRA:         -16.970
REMARK INTER:                 -11.468
REMARK INTRA:                  -5.502
REMARK UNBOUND:                -4.441
REMARK SMILES Cc1cc(C(=O)N[C@@H](C)C(=O)N[C@H](C(=O)N[C@@H](CC(C)C)C(=O)N[C@H](/C=C/C(=O)OCc2ccccc2)C[C@@H]2CCNC2=O)C(C)C)no1
REMARK SMILES IDX 22 1 23 2 24 3 17 5 16 6 14 7 15 8 13 10 12 11 10 12 11 13
REMARK SMILES IDX 8 15 9 16 7 17 5 18 6 19 4 21 1 22 2 23 3 24 49 25 48 26
REMARK SMILES IDX 45 27 46 28 47 29 18 30 19 31 20 32 21 33 25 34 38 35 39 36
REMARK SMILES IDX 40 37 43 38 41 39 42 40 44 41 26 43 27 44 28 45 29 46 30 47
REMARK SMILES IDX 31 48 32 49 33 50 37 51 34 52 36 53 35 54
REMARK H PARENT 24 4 16 9 12 14 7 20 42 42
REMARK INDEX MAP 27 1 28 2 29 3 79 4 22 5 21 6 19 7 20 8 68 9 15 10 14 11
REMARK INDEX MAP 12 12 13 13 59 14 10 15 11 16 9 17 7 18 8 19 54 20 4 21 1 22
REMARK INDEX MAP 2 23 3 24 6 25 5 26 16 27 17 28 18 29 23 30 24 31 25 32 26 33
REMARK INDEX MAP 30 34 31 35 32 36 33 37 36 38 34 39 35 40 37 41 88 42 38 43
REMARK INDEX MAP 39 44 40 45 41 46 42 47 43 48 44 49 45 50 49 51 46 52 48 53
REMARK INDEX MAP 47 54
REMARK Flexibility Score: inf
ROOT
ATOM      1  C   UNL     1      -5.761  10.559  69.793  1.00  0.00     0.234 C 
ATOM      2  O   UNL     1      -5.026  10.429  68.838  1.00  0.00    -0.274 OA
ATOM      3  N   UNL     1      -6.700  11.527  69.795  1.00  0.00    -0.307 N 
ATOM      4  H   UNL     1      -7.247  11.681  70.599  1.00  0.00     0.149 HD
ENDROOT
BRANCH   1   5
ATOM      5  C   UNL     1      -5.627   9.638  70.979  1.00  0.00     0.159 C 
BRANCH   5   6
ATOM      6  N   UNL     1      -6.706   8.647  70.951  1.00  0.00    -0.302 N 
ATOM      7  C   UNL     1      -7.369   8.341  72.083  1.00  0.00     0.234 C 
ATOM      8  O   UNL     1      -7.153   8.966  73.100  1.00  0.00    -0.274 OA
ATOM      9  H   UNL     1      -6.945   8.203  70.105  1.00  0.00     0.150 HD
BRANCH   7  10
ATOM     10  C   UNL     1      -8.381   7.224  72.086  1.00  0.00     0.161 C 
BRANCH  10  11
ATOM     11  N   UNL     1      -9.673   7.733  71.620  1.00  0.00    -0.302 N 
ATOM     12  C   UNL     1     -10.719   7.795  72.468  1.00  0.00     0.234 C 
ATOM     13  O   UNL     1     -10.590   7.429  73.618  1.00  0.00    -0.274 OA
ATOM     14  H   UNL     1      -9.777   8.030  70.688  1.00  0.00     0.150 HD
BRANCH  12  15
ATOM     15  C   UNL     1     -12.047   8.318  71.988  1.00  0.00     0.156 C 
ATOM     16  C   UNL     1     -12.939   7.146  71.574  1.00  0.00     0.038 C 
BRANCH  15  17
ATOM     17  N   UNL     1     -11.837   9.201  70.838  1.00  0.00    -0.299 N 
ATOM     18  C   UNL     1     -12.377  10.437  70.830  1.00  0.00     0.266 C 
ATOM     19  O   UNL     1     -13.039  10.817  71.774  1.00  0.00    -0.268 OA
ATOM     20  H   UNL     1     -11.301   8.893  70.072  1.00  0.00     0.150 HD
BRANCH  18  21
ATOM     21  C   UNL     1     -12.164  11.331  69.665  1.00  0.00     0.168 A 
ATOM     22  C   UNL     1     -11.386  14.416  67.843  1.00  0.00     0.089 C 
ATOM     23  C   UNL     1     -11.734  13.057  68.393  1.00  0.00     0.135 A 
ATOM     24  C   UNL     1     -11.802  12.707  69.698  1.00  0.00     0.080 A 
ATOM     25  O   UNL     1     -12.041  11.961  67.684  1.00  0.00    -0.359 OA
ATOM     26  N   UNL     1     -12.271  11.013  68.399  1.00  0.00    -0.073 NA
ENDBRANCH  18  21
ENDBRANCH  15  17
ENDBRANCH  12  15
ENDBRANCH  10  11
BRANCH  10  27
ATOM     27  C   UNL     1      -7.907   6.105  71.156  1.00  0.00     0.012 C 
ATOM     28  C   UNL     1      -7.873   4.784  71.925  1.00  0.00     0.009 C 
ATOM     29  C   UNL     1      -8.871   5.983  69.975  1.00  0.00     0.009 C 
ENDBRANCH  10  27
ENDBRANCH   7  10
ENDBRANCH   5   6
BRANCH   5  30
ATOM     30  C   UNL     1      -4.276   8.922  70.918  1.00  0.00     0.034 C 
BRANCH  30  31
ATOM     31  C   UNL     1      -3.314   9.564  71.919  1.00  0.00    -0.015 C 
ATOM     32  C   UNL     1      -2.336  10.474  71.174  1.00  0.00     0.007 C 
ATOM     33  C   UNL     1      -4.108  10.390  72.932  1.00  0.00     0.007 C 
ENDBRANCH  30  31
ENDBRANCH   5  30
ENDBRANCH   1   5
BRANCH   3  34
ATOM     34  C   UNL     1      -6.905  12.351  68.601  1.00  0.00     0.097 C 
BRANCH  34  35
ATOM     35  C   UNL     1      -8.328  12.144  68.078  1.00  0.00     0.039 C 
BRANCH  35  36
ATOM     36  C   UNL     1      -8.407  10.812  67.328  1.00  0.00     0.078 C 
ATOM     37  C   UNL     1      -9.176  10.985  65.997  1.00  0.00     0.031 C 
ATOM     38  C   UNL     1      -9.231   9.813  68.109  1.00  0.00     0.216 C 
ATOM     39  C   UNL     1      -9.945   9.649  65.902  1.00  0.00     0.105 C 
ATOM     40  N   UNL     1     -10.090   9.181  67.286  1.00  0.00    -0.315 N 
ATOM     41  O   UNL     1      -9.136   9.610  69.301  1.00  0.00    -0.276 OA
ATOM     42  H   UNL     1     -10.732   8.493  67.575  1.00  0.00     0.149 HD
ENDBRANCH  35  36
ENDBRANCH  34  35
BRANCH  34  43
ATOM     43  C   UNL     1      -6.705  13.802  68.952  1.00  0.00     0.002 C 
ATOM     44  C   UNL     1      -6.483  14.694  67.989  1.00  0.00     0.089 C 
BRANCH  44  45
ATOM     45  C   UNL     1      -6.288  16.110  68.330  1.00  0.00     0.332 C 
ATOM     46  O   UNL     1      -6.045  16.431  69.477  1.00  0.00    -0.246 OA
BRANCH  45  47
ATOM     47  O   UNL     1      -6.379  17.053  67.372  1.00  0.00    -0.457 OA
BRANCH  47  48
ATOM     48  C   UNL     1      -6.646  18.434  67.734  1.00  0.00     0.268 C 
BRANCH  48  49
ATOM     49  C   UNL     1      -8.061  18.788  67.355  1.00  0.00    -0.010 A 
ATOM     50  C   UNL     1      -8.835  17.884  66.652  1.00  0.00     0.007 A 
ATOM     51  C   UNL     1      -8.586  20.015  67.714  1.00  0.00     0.007 A 
ATOM     52  C   UNL     1     -10.132  18.209  66.304  1.00  0.00     0.000 A 
ATOM     53  C   UNL     1      -9.882  20.342  67.363  1.00  0.00     0.000 A 
ATOM     54  C   UNL     1     -10.657  19.438  66.659  1.00  0.00     0.000 A 
ENDBRANCH  48  49
ENDBRANCH  47  48
ENDBRANCH  45  47
ENDBRANCH  44  45
ENDBRANCH  34  43
ENDBRANCH   3  34
TORSDOF 18

ENDMDL
MODEL 10
REMARK VINA RESULT:    -5.778      3.006      8.083
REMARK INTER + INTRA:         -16.300
REMARK INTER:                 -11.859
REMARK INTRA:                  -4.441
REMARK UNBOUND:                -4.441
REMARK SMILES Cc1cc(C(=O)N[C@@H](C)C(=O)N[C@H](C(=O)N[C@@H](CC(C)C)C(=O)N[C@H](/C=C/C(=O)OCc2ccccc2)C[C@@H]2CCNC2=O)C(C)C)no1
REMARK SMILES IDX 22 1 23 2 24 3 17 5 16 6 14 7 15 8 13 10 12 11 10 12 11 13
REMARK SMILES IDX 8 15 9 16 7 17 5 18 6 19 4 21 1 22 2 23 3 24 49 25 48 26
REMARK SMILES IDX 45 27 46 28 47 29 18 30 19 31 20 32 21 33 25 34 38 35 39 36
REMARK SMILES IDX 40 37 43 38 41 39 42 40 44 41 26 43 27 44 28 45 29 46 30 47
REMARK SMILES IDX 31 48 32 49 33 50 37 51 34 52 36 53 35 54
REMARK H PARENT 24 4 16 9 12 14 7 20 42 42
REMARK INDEX MAP 27 1 28 2 29 3 79 4 22 5 21 6 19 7 20 8 68 9 15 10 14 11
REMARK INDEX MAP 12 12 13 13 59 14 10 15 11 16 9 17 7 18 8 19 54 20 4 21 1 22
REMARK INDEX MAP 2 23 3 24 6 25 5 26 16 27 17 28 18 29 23 30 24 31 25 32 26 33
REMARK INDEX MAP 30 34 31 35 32 36 33 37 36 38 34 39 35 40 37 41 88 42 38 43
REMARK INDEX MAP 39 44 40 45 41 46 42 47 43 48 44 49 45 50 49 51 46 52 48 53
REMARK INDEX MAP 47 54
REMARK Flexibility Score: inf
ROOT
ATOM      1  C   UNL     1     -11.100  13.493  68.090  1.00  0.00     0.234 C 
ATOM      2  O   UNL     1     -12.182  13.664  67.569  1.00  0.00    -0.274 OA
ATOM      3  N   UNL     1     -10.618  14.406  68.958  1.00  0.00    -0.307 N 
ATOM      4  H   UNL     1      -9.710  14.306  69.323  1.00  0.00     0.149 HD
ENDROOT
BRANCH   1   5
ATOM      5  C   UNL     1     -10.294  12.262  67.767  1.00  0.00     0.159 C 
BRANCH   5   6
ATOM      6  N   UNL     1      -9.027  12.301  68.504  1.00  0.00    -0.302 N 
ATOM      7  C   UNL     1      -7.883  11.934  67.896  1.00  0.00     0.234 C 
ATOM      8  O   UNL     1      -7.880  11.680  66.709  1.00  0.00    -0.274 OA
ATOM      9  H   UNL     1      -9.013  12.595  69.443  1.00  0.00     0.150 HD
BRANCH   7  10
ATOM     10  C   UNL     1      -6.605  11.839  68.689  1.00  0.00     0.161 C 
BRANCH  10  11
ATOM     11  N   UNL     1      -6.360  13.110  69.375  1.00  0.00    -0.302 N 
ATOM     12  C   UNL     1      -5.588  14.051  68.796  1.00  0.00     0.234 C 
ATOM     13  O   UNL     1      -5.097  13.846  67.706  1.00  0.00    -0.274 OA
ATOM     14  H   UNL     1      -6.758  13.276  70.260  1.00  0.00     0.150 HD
BRANCH  12  15
ATOM     15  C   UNL     1      -5.337  15.358  69.503  1.00  0.00     0.156 C 
ATOM     16  C   UNL     1      -6.591  16.231  69.423  1.00  0.00     0.038 C 
BRANCH  15  17
ATOM     17  N   UNL     1      -4.217  16.052  68.861  1.00  0.00    -0.299 N 
ATOM     18  C   UNL     1      -3.091  16.302  69.558  1.00  0.00     0.266 C 
ATOM     19  O   UNL     1      -3.005  15.954  70.719  1.00  0.00    -0.268 OA
ATOM     20  H   UNL     1      -4.287  16.335  67.920  1.00  0.00     0.150 HD
BRANCH  18  21
ATOM     21  C   UNL     1      -1.957  17.005  68.909  1.00  0.00     0.168 A 
ATOM     22  C   UNL     1       0.153  18.266  66.189  1.00  0.00     0.089 C 
ATOM     23  C   UNL     1      -0.570  17.844  67.442  1.00  0.00     0.135 A 
ATOM     24  C   UNL     1      -1.709  17.117  67.512  1.00  0.00     0.080 A 
ATOM     25  O   UNL     1      -0.206  18.112  68.705  1.00  0.00    -0.359 OA
ATOM     26  N   UNL     1      -0.984  17.648  69.505  1.00  0.00    -0.073 NA
ENDBRANCH  18  21
ENDBRANCH  15  17
ENDBRANCH  12  15
ENDBRANCH  10  11
BRANCH  10  27
ATOM     27  C   UNL     1      -6.728  10.716  69.721  1.00  0.00     0.012 C 
ATOM     28  C   UNL     1      -6.621   9.363  69.017  1.00  0.00     0.009 C 
ATOM     29  C   UNL     1      -5.604  10.845  70.750  1.00  0.00     0.009 C 
ENDBRANCH  10  27
ENDBRANCH   7  10
ENDBRANCH   5   6
BRANCH   5  30
ATOM     30  C   UNL     1     -11.081  11.015  68.175  1.00  0.00     0.034 C 
BRANCH  30  31
ATOM     31  C   UNL     1     -10.910  10.772  69.675  1.00  0.00    -0.015 C 
ATOM     32  C   UNL     1     -12.245  11.004  70.385  1.00  0.00     0.007 C 
ATOM     33  C   UNL     1     -10.452   9.331  69.910  1.00  0.00     0.007 C 
ENDBRANCH  30  31
ENDBRANCH   5  30
ENDBRANCH   1   5
BRANCH   3  34
ATOM     34  C   UNL     1     -11.446  15.547  69.356  1.00  0.00     0.097 C 
BRANCH  34  35
ATOM     35  C   UNL     1     -11.240  15.831  70.846  1.00  0.00     0.039 C 
BRANCH  35  36
ATOM     36  C   UNL     1     -12.275  15.054  71.661  1.00  0.00     0.078 C 
ATOM     37  C   UNL     1     -13.540  14.783  70.812  1.00  0.00     0.031 C 
ATOM     38  C   UNL     1     -12.774  15.891  72.819  1.00  0.00     0.216 C 
ATOM     39  C   UNL     1     -14.661  14.924  71.865  1.00  0.00     0.105 C 
ATOM     40  N   UNL     1     -14.116  15.806  72.904  1.00  0.00    -0.315 N 
ATOM     41  O   UNL     1     -12.072  16.546  73.559  1.00  0.00    -0.276 OA
ATOM     42  H   UNL     1     -14.661  16.274  73.577  1.00  0.00     0.149 HD
ENDBRANCH  35  36
ENDBRANCH  34  35
BRANCH  34  43
ATOM     43  C   UNL     1     -11.051  16.760  68.554  1.00  0.00     0.002 C 
ATOM     44  C   UNL     1      -9.908  16.762  67.873  1.00  0.00     0.089 C 
BRANCH  44  45
ATOM     45  C   UNL     1      -9.521  17.945  67.092  1.00  0.00     0.332 C 
ATOM     46  O   UNL     1      -9.431  17.871  65.882  1.00  0.00    -0.246 OA
BRANCH  45  47
ATOM     47  O   UNL     1      -9.266  19.111  67.716  1.00  0.00    -0.457 OA
BRANCH  47  48
ATOM     48  C   UNL     1      -8.265  20.018  67.181  1.00  0.00     0.268 C 
BRANCH  48  49
ATOM     49  C   UNL     1      -7.006  19.920  68.004  1.00  0.00    -0.010 A 
ATOM     50  C   UNL     1      -7.079  19.955  69.384  1.00  0.00     0.007 A 
ATOM     51  C   UNL     1      -5.780  19.790  67.379  1.00  0.00     0.007 A 
ATOM     52  C   UNL     1      -5.925  19.865  70.139  1.00  0.00     0.000 A 
ATOM     53  C   UNL     1      -4.626  19.705  68.134  1.00  0.00     0.000 A 
ATOM     54  C   UNL     1      -4.698  19.740  69.515  1.00  0.00     0.000 A 
ENDBRANCH  48  49
ENDBRANCH  47  48
ENDBRANCH  45  47
ENDBRANCH  44  45
ENDBRANCH  34  43
ENDBRANCH   3  34
TORSDOF 18

ENDMDL
