REMARK SMILES Cc1cc(C(=O)N[C@@H](C)C(=O)N[C@H](C(=O)N[C@@H](CC(C)C)C(=O)N[C@H](/C=C/C(=O)OCc2ccccc2)C[C@@H]2CCNC2=O)C(C)C)no1
REMARK SMILES IDX 22 1 23 2 24 3 17 5 16 6 14 7 15 8 13 10 12 11 10 12 11 13
REMARK SMILES IDX 8 15 9 16 7 17 5 18 6 19 4 21 1 22 2 23 3 24 49 25 48 26
REMARK SMILES IDX 45 27 46 28 47 29 18 30 19 31 20 32 21 33 25 34 38 35 39 36
REMARK SMILES IDX 40 37 43 38 41 39 42 40 44 41 26 43 27 44 28 45 29 46 30 47
REMARK SMILES IDX 31 48 32 49 33 50 37 51 34 52 36 53 35 54
REMARK H PARENT 24 4 16 9 12 14 7 20 42 42
REMARK INDEX MAP 27 1 28 2 29 3 79 4 22 5 21 6 19 7 20 8 68 9 15 10 14 11
REMARK INDEX MAP 12 12 13 13 59 14 10 15 11 16 9 17 7 18 8 19 54 20 4 21 1 22
REMARK INDEX MAP 2 23 3 24 6 25 5 26 16 27 17 28 18 29 23 30 24 31 25 32 26 33
REMARK INDEX MAP 30 34 31 35 32 36 33 37 36 38 34 39 35 40 37 41 88 42 38 43
REMARK INDEX MAP 39 44 40 45 41 46 42 47 43 48 44 49 45 50 49 51 46 52 48 53
REMARK INDEX MAP 47 54
REMARK Flexibility Score: inf
ROOT
ATOM      1  C   UNL     1      -1.540   0.742  -0.492  1.00  0.00     0.234 C 
ATOM      2  O   UNL     1      -1.508   1.109   0.663  1.00  0.00    -0.274 OA
ATOM      3  N   UNL     1      -2.707   0.743  -1.168  1.00  0.00    -0.307 N 
ATOM      4  H   UNL     1      -2.748   0.376  -2.080  1.00  0.00     0.149 HD
ENDROOT
BRANCH   1   5
ATOM      5  C   UNL     1      -0.276   0.284  -1.173  1.00  0.00     0.159 C 
BRANCH   5   6
ATOM      6  N   UNL     1       0.845   0.376  -0.234  1.00  0.00    -0.302 N 
ATOM      7  C   UNL     1       2.102   0.516  -0.697  1.00  0.00     0.234 C 
ATOM      8  O   UNL     1       2.297   0.680  -1.883  1.00  0.00    -0.274 OA
ATOM      9  H   UNL     1       0.679   0.335   0.736  1.00  0.00     0.150 HD
BRANCH   7  10
ATOM     10  C   UNL     1       3.267   0.469   0.258  1.00  0.00     0.161 C 
BRANCH  10  11
ATOM     11  N   UNL     1       4.521   0.501  -0.499  1.00  0.00    -0.302 N 
ATOM     12  C   UNL     1       5.644  -0.020   0.034  1.00  0.00     0.234 C 
ATOM     13  O   UNL     1       5.616  -0.516   1.141  1.00  0.00    -0.274 OA
ATOM     14  H   UNL     1       4.543   0.903  -1.397  1.00  0.00     0.150 HD
BRANCH  12  15
ATOM     15  C   UNL     1       6.933   0.013  -0.745  1.00  0.00     0.156 C 
ATOM     16  C   UNL     1       6.757  -0.754  -2.057  1.00  0.00     0.038 C 
BRANCH  15  17
ATOM     17  N   UNL     1       7.997  -0.611   0.046  1.00  0.00    -0.299 N 
ATOM     18  C   UNL     1       9.284  -0.275  -0.173  1.00  0.00     0.266 C 
ATOM     19  O   UNL     1       9.562   0.544  -1.026  1.00  0.00    -0.268 OA
ATOM     20  H   UNL     1       7.772  -1.275   0.737  1.00  0.00     0.150 HD
BRANCH  18  21
ATOM     21  C   UNL     1      10.362  -0.907   0.628  1.00  0.00     0.168 A 
ATOM     22  C   UNL     1      13.767  -1.624   1.781  1.00  0.00     0.089 C 
ATOM     23  C   UNL     1      12.303  -1.476   1.458  1.00  0.00     0.135 A 
ATOM     24  C   UNL     1      11.760  -0.665   0.521  1.00  0.00     0.080 A 
ATOM     25  O   UNL     1      11.285  -2.127   2.040  1.00  0.00    -0.359 OA
ATOM     26  N   UNL     1      10.218  -1.799   1.576  1.00  0.00    -0.073 NA
ENDBRANCH  18  21
ENDBRANCH  15  17
ENDBRANCH  12  15
ENDBRANCH  10  11
BRANCH  10  27
ATOM     27  C   UNL     1       3.206   1.676   1.196  1.00  0.00     0.012 C 
ATOM     28  C   UNL     1       4.303   1.554   2.255  1.00  0.00     0.009 C 
ATOM     29  C   UNL     1       3.417   2.959   0.390  1.00  0.00     0.009 C 
ENDBRANCH  10  27
ENDBRANCH   7  10
ENDBRANCH   5   6
BRANCH   5  30
ATOM     30  C   UNL     1      -0.440  -1.167  -1.630  1.00  0.00     0.034 C 
BRANCH  30  31
ATOM     31  C   UNL     1       0.793  -1.592  -2.429  1.00  0.00    -0.015 C 
ATOM     32  C   UNL     1       0.686  -3.077  -2.780  1.00  0.00     0.007 C 
ATOM     33  C   UNL     1       0.876  -0.769  -3.716  1.00  0.00     0.007 C 
ENDBRANCH  30  31
ENDBRANCH   5  30
ENDBRANCH   1   5
BRANCH   3  34
ATOM     34  C   UNL     1      -3.914   1.291  -0.544  1.00  0.00     0.097 C 
BRANCH  34  35
ATOM     35  C   UNL     1      -3.989   2.796  -0.814  1.00  0.00     0.039 C 
BRANCH  35  36
ATOM     36  C   UNL     1      -5.232   3.374  -0.135  1.00  0.00     0.078 C 
ATOM     37  C   UNL     1      -5.432   4.853  -0.541  1.00  0.00     0.031 C 
ATOM     38  C   UNL     1      -5.043   3.420   1.365  1.00  0.00     0.216 C 
ATOM     39  C   UNL     1      -5.965   5.470   0.771  1.00  0.00     0.105 C 
ATOM     40  N   UNL     1      -5.455   4.609   1.845  1.00  0.00    -0.315 N 
ATOM     41  O   UNL     1      -4.585   2.521   2.038  1.00  0.00    -0.276 OA
ATOM     42  H   UNL     1      -5.419   4.868   2.794  1.00  0.00     0.149 HD
ENDBRANCH  35  36
ENDBRANCH  34  35
BRANCH  34  43
ATOM     43  C   UNL     1      -5.130   0.616  -1.124  1.00  0.00     0.002 C 
ATOM     44  C   UNL     1      -5.956  -0.061  -0.330  1.00  0.00     0.089 C 
BRANCH  44  45
ATOM     45  C   UNL     1      -7.142  -0.720  -0.895  1.00  0.00     0.332 C 
ATOM     46  O   UNL     1      -7.368  -0.647  -2.087  1.00  0.00    -0.246 OA
BRANCH  45  47
ATOM     47  O   UNL     1      -7.979  -1.406  -0.092  1.00  0.00    -0.457 OA
BRANCH  47  48
ATOM     48  C   UNL     1      -9.151  -2.057  -0.650  1.00  0.00     0.268 C 
BRANCH  48  49
ATOM     49  C   UNL     1      -9.913  -2.750   0.450  1.00  0.00    -0.010 A 
ATOM     50  C   UNL     1     -10.902  -2.072   1.138  1.00  0.00     0.007 A 
ATOM     51  C   UNL     1      -9.626  -4.064   0.768  1.00  0.00     0.007 A 
ATOM     52  C   UNL     1     -11.601  -2.707   2.147  1.00  0.00     0.000 A 
ATOM     53  C   UNL     1     -10.322  -4.698   1.780  1.00  0.00     0.000 A 
ATOM     54  C   UNL     1     -11.311  -4.020   2.469  1.00  0.00     0.000 A 
ENDBRANCH  48  49
ENDBRANCH  47  48
ENDBRANCH  45  47
ENDBRANCH  44  45
ENDBRANCH  34  43
ENDBRANCH   3  34
TORSDOF 18

