 
  PyMOL2.4          3D                             0

 49 51  0  0  0  0  0  0  0  0999 V2000
   13.7670   -1.6240    1.7810 C   0  0  0  0  0  0  0  0  0  0  0  0
   12.3030   -1.4760    1.4580 C   0  0  0  0  0  0  0  0  0  0  0  0
   11.7600   -0.6650    0.5210 C   0  0  0  0  0  0  0  0  0  0  0  0
   10.3620   -0.9070    0.6280 C   0  0  0  0  0  0  0  0  0  0  0  0
   10.2180   -1.7990    1.5760 N   0  0  0  0  0  0  0  0  0  0  0  0
   11.2850   -2.1270    2.0400 O   0  0  0  0  0  0  0  0  0  0  0  0
    9.2840   -0.2750   -0.1730 C   0  0  0  0  0  0  0  0  0  0  0  0
    9.5620    0.5440   -1.0260 O   0  0  0  0  0  0  0  0  0  0  0  0
    7.9970   -0.6110    0.0460 N   0  0  0  0  0  0  0  0  0  0  0  0
    6.9330    0.0130   -0.7450 C   0  0  0  0  0  0  0  0  0  0  0  0
    6.7570   -0.7540   -2.0570 C   0  0  0  0  0  0  0  0  0  0  0  0
    5.6440   -0.0200    0.0340 C   0  0  0  0  0  0  0  0  0  0  0  0
    5.6160   -0.5160    1.1410 O   0  0  0  0  0  0  0  0  0  0  0  0
    4.5210    0.5010   -0.4990 N   0  0  0  0  0  0  0  0  0  0  0  0
    3.2670    0.4690    0.2580 C   0  0  0  0  0  0  0  0  0  0  0  0
    3.2060    1.6760    1.1960 C   0  0  0  0  0  0  0  0  0  0  0  0
    4.3030    1.5540    2.2550 C   0  0  0  0  0  0  0  0  0  0  0  0
    3.4170    2.9590    0.3900 C   0  0  0  0  0  0  0  0  0  0  0  0
    2.1020    0.5160   -0.6970 C   0  0  0  0  0  0  0  0  0  0  0  0
    2.2970    0.6800   -1.8830 O   0  0  0  0  0  0  0  0  0  0  0  0
    0.8450    0.3760   -0.2340 N   0  0  0  0  0  0  0  0  0  0  0  0
   -0.2760    0.2840   -1.1730 C   0  0  0  0  0  0  0  0  0  0  0  0
   -0.4400   -1.1670   -1.6300 C   0  0  0  0  0  0  0  0  0  0  0  0
    0.7930   -1.5920   -2.4290 C   0  0  0  0  0  0  0  0  0  0  0  0
    0.6860   -3.0770   -2.7800 C   0  0  0  0  0  0  0  0  0  0  0  0
    0.8760   -0.7690   -3.7160 C   0  0  0  0  0  0  0  0  0  0  0  0
   -1.5400    0.7420   -0.4920 C   0  0  0  0  0  0  0  0  0  0  0  0
   -1.5080    1.1090    0.6630 O   0  0  0  0  0  0  0  0  0  0  0  0
   -2.7070    0.7430   -1.1680 N   0  0  0  0  0  0  0  0  0  0  0  0
   -3.9140    1.2910   -0.5440 C   0  0  0  0  0  0  0  0  0  0  0  0
   -3.9890    2.7960   -0.8140 C   0  0  0  0  0  0  0  0  0  0  0  0
   -5.2320    3.3740   -0.1350 C   0  0  0  0  0  0  0  0  0  0  0  0
   -5.4320    4.8530   -0.5410 C   0  0  0  0  0  0  0  0  0  0  0  0
   -5.9650    5.4700    0.7710 C   0  0  0  0  0  0  0  0  0  0  0  0
   -5.4550    4.6090    1.8450 N   0  0  0  0  0  0  0  0  0  0  0  0
   -5.0430    3.4200    1.3650 C   0  0  0  0  0  0  0  0  0  0  0  0
   -4.5850    2.5210    2.0380 O   0  0  0  0  0  0  0  0  0  0  0  0
   -5.1300    0.6160   -1.1240 C   0  0  0  0  0  0  0  0  0  0  0  0
   -5.9560   -0.0610   -0.3300 C   0  0  0  0  0  0  0  0  0  0  0  0
   -7.1420   -0.7200   -0.8950 C   0  0  0  0  0  0  0  0  0  0  0  0
   -7.3680   -0.6470   -2.0870 O   0  0  0  0  0  0  0  0  0  0  0  0
   -7.9790   -1.4060   -0.0920 O   0  0  0  0  0  0  0  0  0  0  0  0
   -9.1510   -2.0570   -0.6500 C   0  0  0  0  0  0  0  0  0  0  0  0
   -9.9130   -2.7500    0.4500 C   0  0  0  0  0  0  0  0  0  0  0  0
  -10.9020   -2.0720    1.1380 C   0  0  0  0  0  0  0  0  0  0  0  0
  -11.6010   -2.7070    2.1470 C   0  0  0  0  0  0  0  0  0  0  0  0
  -11.3110   -4.0200    2.4690 C   0  0  0  0  0  0  0  0  0  0  0  0
  -10.3220   -4.6980    1.7800 C   0  0  0  0  0  0  0  0  0  0  0  0
   -9.6260   -4.0640    0.7680 C   0  0  0  0  0  0  0  0  0  0  0  0
  1  2  1  0  0  0  0
  2  3  2  0  0  0  0
  2  6  1  0  0  0  0
  3  4  1  0  0  0  0
  4  5  2  0  0  0  0
  4  7  1  0  0  0  0
  5  6  1  0  0  0  0
  7  8  2  0  0  0  0
  7  9  1  0  0  0  0
  9 10  1  0  0  0  0
 10 11  1  0  0  0  0
 10 12  1  0  0  0  0
 12 13  2  0  0  0  0
 12 14  1  0  0  0  0
 14 15  1  0  0  0  0
 15 16  1  0  0  0  0
 15 19  1  0  0  0  0
 16 17  1  0  0  0  0
 16 18  1  0  0  0  0
 19 20  2  0  0  0  0
 19 21  1  0  0  0  0
 21 22  1  0  0  0  0
 22 23  1  0  0  0  0
 22 27  1  0  0  0  0
 23 24  1  0  0  0  0
 24 25  1  0  0  0  0
 24 26  1  0  0  0  0
 27 28  2  0  0  0  0
 27 29  1  0  0  0  0
 29 30  1  0  0  0  0
 30 31  1  0  0  0  0
 30 38  1  0  0  0  0
 31 32  1  0  0  0  0
 32 33  1  0  0  0  0
 32 36  1  0  0  0  0
 33 34  1  0  0  0  0
 34 35  1  0  0  0  0
 35 36  1  0  0  0  0
 36 37  2  0  0  0  0
 38 39  2  0  0  0  0
 39 40  1  0  0  0  0
 40 41  2  0  0  0  0
 40 42  1  0  0  0  0
 42 43  1  0  0  0  0
 43 44  1  0  0  0  0
 44 45  1  0  0  0  0
 44 49  2  0  0  0  0
 45 46  2  0  0  0  0
 46 47  1  0  0  0  0
 47 48  2  0  0  0  0
 48 49  1  0  0  0  0
M  END
$$$$
