MODEL 1
REMARK VINA RESULT:    -7.005      0.000      0.000
REMARK INTER + INTRA:         -13.299
REMARK INTER:                 -11.149
REMARK INTRA:                  -2.150
REMARK UNBOUND:                -2.199
REMARK SMILES CC(C)(C)NC(=O)N[C@H](C(=O)N1C[C@H]2[C@@H]([C@H]1C(=O)N[C@@H](CC1CCC1)C(=O)C(N)=O)C2(C)C)C(C)(C)C
REMARK SMILES IDX 11 1 12 2 15 3 31 4 14 5 16 6 13 7 32 8 33 9 10 10 17 11
REMARK SMILES IDX 18 12 19 13 20 15 21 16 22 17 23 18 25 19 24 20 26 21 27 22
REMARK SMILES IDX 28 23 30 24 29 25 9 28 8 29 6 30 7 32 5 33 2 35 1 36 3 37
REMARK SMILES IDX 4 38 34 39 35 40 36 41 37 42
REMARK H PARENT 19 14 29 26 29 27 8 31 5 34
REMARK INDEX MAP 2 1 6 2 11 3 12 4 13 5 14 6 15 7 16 8 17 9 19 10 18 11 1 12
REMARK INDEX MAP 7 13 38 14 22 15 23 16 24 17 29 18 30 19 31 20 28 21 3 22
REMARK INDEX MAP 33 23 5 24 10 25 41 26 42 27 20 28 8 29 32 30 39 31 4 32 9 33
REMARK INDEX MAP 40 34 34 35 35 36 36 37 37 38 21 39 25 40 26 41 27 42
REMARK Flexibility Score: inf
ROOT
ATOM      1  O   UNL     1      -9.464  14.115  68.808  1.00  0.00    -0.274 OA
ATOM      2  N   UNL     1     -10.961  13.956  67.049  1.00  0.00    -0.288 N 
ATOM      3  C   UNL     1     -10.679  13.647  64.738  1.00  0.00     0.030 C 
ATOM      4  C   UNL     1     -11.315  12.289  64.612  1.00  0.00    -0.025 C 
ATOM      5  C   UNL     1     -12.121  13.476  65.066  1.00  0.00     0.018 C 
ATOM      6  C   UNL     1      -9.957  14.058  65.985  1.00  0.00     0.166 C 
ATOM      7  C   UNL     1     -12.317  13.760  66.520  1.00  0.00     0.113 C 
ATOM      8  C   UNL     1     -11.547  11.705  63.260  1.00  0.00     0.011 C 
ATOM      9  C   UNL     1     -10.962  11.273  65.644  1.00  0.00     0.011 C 
ATOM     10  C   UNL     1     -10.611  13.947  68.393  1.00  0.00     0.237 C 
ENDROOT
BRANCH   6  11
ATOM     11  C   UNL     1      -9.543  15.495  65.946  1.00  0.00     0.234 C 
ATOM     12  O   UNL     1     -10.184  16.336  65.320  1.00  0.00    -0.274 OA
ATOM     13  N   UNL     1      -8.380  15.726  66.659  1.00  0.00    -0.304 N 
ATOM     14  H   UNL     1      -7.955  14.968  67.122  1.00  0.00     0.149 HD
BRANCH  13  15
ATOM     15  C   UNL     1      -7.758  17.026  66.758  1.00  0.00     0.149 C 
BRANCH  15  16
ATOM     16  C   UNL     1      -8.199  17.765  68.024  1.00  0.00     0.034 C 
BRANCH  16  17
ATOM     17  C   UNL     1      -8.866  19.094  67.682  1.00  0.00    -0.009 C 
ATOM     18  C   UNL     1      -8.866  19.450  66.181  1.00  0.00     0.003 C 
ATOM     19  C   UNL     1     -10.405  19.038  67.590  1.00  0.00     0.003 C 
ATOM     20  C   UNL     1     -10.292  20.001  66.390  1.00  0.00     0.001 C 
ENDBRANCH  16  17
ENDBRANCH  15  16
BRANCH  15  21
ATOM     21  C   UNL     1      -6.244  16.892  66.717  1.00  0.00     0.237 C 
ATOM     22  O   UNL     1      -5.531  17.348  65.830  1.00  0.00    -0.285 OA
BRANCH  21  23
ATOM     23  C   UNL     1      -5.553  16.075  67.769  1.00  0.00     0.279 C 
ATOM     24  O   UNL     1      -5.957  14.946  67.992  1.00  0.00    -0.267 OA
ATOM     25  N   UNL     1      -4.536  16.747  68.393  1.00  0.00    -0.323 N 
ATOM     26  H   UNL     1      -4.014  16.304  69.101  1.00  0.00     0.145 HD
ATOM     27  H   UNL     1      -4.326  17.674  68.135  1.00  0.00     0.145 HD
ENDBRANCH  21  23
ENDBRANCH  15  21
ENDBRANCH  13  15
ENDBRANCH   6  11
BRANCH  10  28
ATOM     28  C   UNL     1     -11.743  13.713  69.360  1.00  0.00     0.166 C 
BRANCH  28  29
ATOM     29  N   UNL     1     -11.299  12.605  70.160  1.00  0.00    -0.288 N 
ATOM     30  C   UNL     1     -11.633  11.276  69.888  1.00  0.00     0.301 C 
ATOM     31  H   UNL     1     -10.729  12.792  70.942  1.00  0.00     0.151 HD
ATOM     32  O   UNL     1     -12.335  10.920  68.943  1.00  0.00    -0.253 OA
ATOM     33  N   UNL     1     -11.071  10.408  70.819  1.00  0.00    -0.295 N 
ATOM     34  H   UNL     1     -10.520  10.784  71.543  1.00  0.00     0.151 HD
BRANCH  33  35
ATOM     35  C   UNL     1     -11.259   8.977  70.768  1.00  0.00     0.028 C 
ATOM     36  C   UNL     1     -10.335   8.307  71.790  1.00  0.00     0.031 C 
ATOM     37  C   UNL     1     -12.720   8.652  71.098  1.00  0.00     0.031 C 
ATOM     38  C   UNL     1     -10.921   8.471  69.360  1.00  0.00     0.031 C 
ENDBRANCH  33  35
ENDBRANCH  28  29
BRANCH  28  39
ATOM     39  C   UNL     1     -12.124  14.972  70.176  1.00  0.00    -0.011 C 
ATOM     40  C   UNL     1     -12.049  16.222  69.277  1.00  0.00     0.013 C 
ATOM     41  C   UNL     1     -13.577  14.832  70.676  1.00  0.00     0.013 C 
ATOM     42  C   UNL     1     -11.208  15.186  71.397  1.00  0.00     0.013 C 
ENDBRANCH  28  39
ENDBRANCH  10  28
TORSDOF 10

ENDMDL
MODEL 2
REMARK VINA RESULT:    -6.157      2.775      8.657
REMARK INTER + INTRA:         -11.955
REMARK INTER:                 -10.724
REMARK INTRA:                  -1.231
REMARK UNBOUND:                -2.199
REMARK SMILES CC(C)(C)NC(=O)N[C@H](C(=O)N1C[C@H]2[C@@H]([C@H]1C(=O)N[C@@H](CC1CCC1)C(=O)C(N)=O)C2(C)C)C(C)(C)C
REMARK SMILES IDX 11 1 12 2 15 3 31 4 14 5 16 6 13 7 32 8 33 9 10 10 17 11
REMARK SMILES IDX 18 12 19 13 20 15 21 16 22 17 23 18 25 19 24 20 26 21 27 22
REMARK SMILES IDX 28 23 30 24 29 25 9 28 8 29 6 30 7 32 5 33 2 35 1 36 3 37
REMARK SMILES IDX 4 38 34 39 35 40 36 41 37 42
REMARK H PARENT 19 14 29 26 29 27 8 31 5 34
REMARK INDEX MAP 2 1 6 2 11 3 12 4 13 5 14 6 15 7 16 8 17 9 19 10 18 11 1 12
REMARK INDEX MAP 7 13 38 14 22 15 23 16 24 17 29 18 30 19 31 20 28 21 3 22
REMARK INDEX MAP 33 23 5 24 10 25 41 26 42 27 20 28 8 29 32 30 39 31 4 32 9 33
REMARK INDEX MAP 40 34 34 35 35 36 36 37 37 38 21 39 25 40 26 41 27 42
REMARK Flexibility Score: inf
ROOT
ATOM      1  O   UNL     1      -8.559  16.714  65.610  1.00  0.00    -0.274 OA
ATOM      2  N   UNL     1      -7.635  16.360  67.703  1.00  0.00    -0.288 N 
ATOM      3  C   UNL     1      -6.434  14.568  68.633  1.00  0.00     0.030 C 
ATOM      4  C   UNL     1      -5.112  15.260  68.831  1.00  0.00    -0.025 C 
ATOM      5  C   UNL     1      -6.342  15.730  69.559  1.00  0.00     0.018 C 
ATOM      6  C   UNL     1      -7.346  14.936  67.503  1.00  0.00     0.166 C 
ATOM      7  C   UNL     1      -7.179  16.843  69.013  1.00  0.00     0.113 C 
ATOM      8  C   UNL     1      -4.023  14.570  69.579  1.00  0.00     0.011 C 
ATOM      9  C   UNL     1      -4.616  16.113  67.714  1.00  0.00     0.011 C 
ATOM     10  C   UNL     1      -8.184  17.147  66.701  1.00  0.00     0.237 C 
ENDROOT
BRANCH   6  11
ATOM     11  C   UNL     1      -8.663  14.232  67.593  1.00  0.00     0.234 C 
ATOM     12  O   UNL     1      -9.279  14.145  68.652  1.00  0.00    -0.274 OA
ATOM     13  N   UNL     1      -9.056  13.697  66.379  1.00  0.00    -0.304 N 
ATOM     14  H   UNL     1      -8.475  13.833  65.596  1.00  0.00     0.149 HD
BRANCH  13  15
ATOM     15  C   UNL     1     -10.279  12.949  66.203  1.00  0.00     0.149 C 
BRANCH  15  16
ATOM     16  C   UNL     1     -10.500  11.955  67.347  1.00  0.00     0.034 C 
BRANCH  16  17
ATOM     17  C   UNL     1     -10.850  10.569  66.812  1.00  0.00    -0.009 C 
ATOM     18  C   UNL     1      -9.954  10.077  65.657  1.00  0.00     0.003 C 
ATOM     19  C   UNL     1     -10.289   9.398  67.645  1.00  0.00     0.003 C 
ATOM     20  C   UNL     1     -10.016   8.679  66.307  1.00  0.00     0.001 C 
ENDBRANCH  16  17
ENDBRANCH  15  16
BRANCH  15  21
ATOM     21  C   UNL     1     -11.464  13.894  66.080  1.00  0.00     0.237 C 
ATOM     22  O   UNL     1     -12.217  14.188  67.001  1.00  0.00    -0.285 OA
BRANCH  21  23
ATOM     23  C   UNL     1     -11.817  14.451  64.731  1.00  0.00     0.279 C 
ATOM     24  O   UNL     1     -12.635  13.857  64.049  1.00  0.00    -0.267 OA
ATOM     25  N   UNL     1     -11.118  15.586  64.415  1.00  0.00    -0.323 N 
ATOM     26  H   UNL     1     -11.271  16.035  63.553  1.00  0.00     0.145 HD
ATOM     27  H   UNL     1     -10.460  15.951  65.051  1.00  0.00     0.145 HD
ENDBRANCH  21  23
ENDBRANCH  15  21
ENDBRANCH  13  15
ENDBRANCH   6  11
BRANCH  10  28
ATOM     28  C   UNL     1      -8.308  18.616  67.018  1.00  0.00     0.166 C 
BRANCH  28  29
ATOM     29  N   UNL     1      -7.816  19.273  65.838  1.00  0.00    -0.288 N 
ATOM     30  C   UNL     1      -6.460  19.488  65.585  1.00  0.00     0.301 C 
ATOM     31  H   UNL     1      -8.471  19.589  65.173  1.00  0.00     0.151 HD
ATOM     32  O   UNL     1      -5.552  19.139  66.339  1.00  0.00    -0.253 OA
ATOM     33  N   UNL     1      -6.264  20.144  64.374  1.00  0.00    -0.295 N 
ATOM     34  H   UNL     1      -7.053  20.385  63.835  1.00  0.00     0.151 HD
BRANCH  33  35
ATOM     35  C   UNL     1      -4.955  20.488  63.872  1.00  0.00     0.028 C 
ATOM     36  C   UNL     1      -4.185  21.258  64.950  1.00  0.00     0.031 C 
ATOM     37  C   UNL     1      -4.202  19.201  63.517  1.00  0.00     0.031 C 
ATOM     38  C   UNL     1      -5.104  21.364  62.622  1.00  0.00     0.031 C 
ENDBRANCH  33  35
ENDBRANCH  28  29
BRANCH  28  39
ATOM     39  C   UNL     1      -9.739  19.037  67.430  1.00  0.00    -0.011 C 
ATOM     40  C   UNL     1      -9.686  19.889  68.714  1.00  0.00     0.013 C 
ATOM     41  C   UNL     1     -10.354  19.902  66.311  1.00  0.00     0.013 C 
ATOM     42  C   UNL     1     -10.664  17.830  67.677  1.00  0.00     0.013 C 
ENDBRANCH  28  39
ENDBRANCH  10  28
TORSDOF 10

ENDMDL
MODEL 3
REMARK VINA RESULT:    -6.134      2.787      4.763
REMARK INTER + INTRA:         -11.919
REMARK INTER:                  -9.836
REMARK INTRA:                  -2.083
REMARK UNBOUND:                -2.199
REMARK SMILES CC(C)(C)NC(=O)N[C@H](C(=O)N1C[C@H]2[C@@H]([C@H]1C(=O)N[C@@H](CC1CCC1)C(=O)C(N)=O)C2(C)C)C(C)(C)C
REMARK SMILES IDX 11 1 12 2 15 3 31 4 14 5 16 6 13 7 32 8 33 9 10 10 17 11
REMARK SMILES IDX 18 12 19 13 20 15 21 16 22 17 23 18 25 19 24 20 26 21 27 22
REMARK SMILES IDX 28 23 30 24 29 25 9 28 8 29 6 30 7 32 5 33 2 35 1 36 3 37
REMARK SMILES IDX 4 38 34 39 35 40 36 41 37 42
REMARK H PARENT 19 14 29 26 29 27 8 31 5 34
REMARK INDEX MAP 2 1 6 2 11 3 12 4 13 5 14 6 15 7 16 8 17 9 19 10 18 11 1 12
REMARK INDEX MAP 7 13 38 14 22 15 23 16 24 17 29 18 30 19 31 20 28 21 3 22
REMARK INDEX MAP 33 23 5 24 10 25 41 26 42 27 20 28 8 29 32 30 39 31 4 32 9 33
REMARK INDEX MAP 40 34 34 35 35 36 36 37 37 38 21 39 25 40 26 41 27 42
REMARK Flexibility Score: inf
ROOT
ATOM      1  O   UNL     1      -8.658  15.661  69.138  1.00  0.00    -0.274 OA
ATOM      2  N   UNL     1      -6.786  14.497  68.431  1.00  0.00    -0.288 N 
ATOM      3  C   UNL     1      -4.581  14.384  69.234  1.00  0.00     0.030 C 
ATOM      4  C   UNL     1      -4.572  12.942  69.667  1.00  0.00    -0.025 C 
ATOM      5  C   UNL     1      -4.772  13.309  68.221  1.00  0.00     0.018 C 
ATOM      6  C   UNL     1      -5.832  15.207  69.289  1.00  0.00     0.166 C 
ATOM      7  C   UNL     1      -6.145  13.435  67.644  1.00  0.00     0.113 C 
ATOM      8  C   UNL     1      -3.293  12.312  70.104  1.00  0.00     0.011 C 
ATOM      9  C   UNL     1      -5.763  12.447  70.413  1.00  0.00     0.011 C 
ATOM     10  C   UNL     1      -8.148  14.762  68.468  1.00  0.00     0.237 C 
ENDROOT
BRANCH   6  11
ATOM     11  C   UNL     1      -5.644  16.555  68.669  1.00  0.00     0.234 C 
ATOM     12  O   UNL     1      -5.041  16.701  67.608  1.00  0.00    -0.274 OA
ATOM     13  N   UNL     1      -6.197  17.567  69.434  1.00  0.00    -0.304 N 
ATOM     14  H   UNL     1      -6.659  17.324  70.270  1.00  0.00     0.149 HD
BRANCH  13  15
ATOM     15  C   UNL     1      -6.132  18.962  69.067  1.00  0.00     0.149 C 
BRANCH  15  16
ATOM     16  C   UNL     1      -7.510  19.625  69.126  1.00  0.00     0.034 C 
BRANCH  16  17
ATOM     17  C   UNL     1      -8.467  18.998  68.115  1.00  0.00    -0.009 C 
ATOM     18  C   UNL     1      -9.919  18.840  68.611  1.00  0.00     0.003 C 
ATOM     19  C   UNL     1      -9.015  19.976  67.055  1.00  0.00     0.003 C 
ATOM     20  C   UNL     1     -10.366  19.243  67.190  1.00  0.00     0.001 C 
ENDBRANCH  16  17
ENDBRANCH  15  16
BRANCH  15  21
ATOM     21  C   UNL     1      -5.146  19.699  69.960  1.00  0.00     0.237 C 
ATOM     22  O   UNL     1      -4.149  20.286  69.556  1.00  0.00    -0.285 OA
BRANCH  21  23
ATOM     23  C   UNL     1      -5.326  19.643  71.449  1.00  0.00     0.279 C 
ATOM     24  O   UNL     1      -5.216  18.568  72.012  1.00  0.00    -0.267 OA
ATOM     25  N   UNL     1      -5.637  20.858  72.000  1.00  0.00    -0.323 N 
ATOM     26  H   UNL     1      -5.777  20.936  72.972  1.00  0.00     0.145 HD
ATOM     27  H   UNL     1      -5.723  21.653  71.425  1.00  0.00     0.145 HD
ENDBRANCH  21  23
ENDBRANCH  15  21
ENDBRANCH  13  15
ENDBRANCH   6  11
BRANCH  10  28
ATOM     28  C   UNL     1      -9.011  13.865  67.617  1.00  0.00     0.166 C 
BRANCH  28  29
ATOM     29  N   UNL     1      -9.758  13.090  68.569  1.00  0.00    -0.288 N 
ATOM     30  C   UNL     1      -9.693  11.697  68.647  1.00  0.00     0.301 C 
ATOM     31  H   UNL     1     -10.348  13.565  69.198  1.00  0.00     0.151 HD
ATOM     32  O   UNL     1      -8.994  10.995  67.917  1.00  0.00    -0.253 OA
ATOM     33  N   UNL     1     -10.516  11.204  69.655  1.00  0.00    -0.295 N 
ATOM     34  H   UNL     1     -11.039  11.842  70.191  1.00  0.00     0.151 HD
BRANCH  33  35
ATOM     35  C   UNL     1     -10.634   9.795  69.950  1.00  0.00     0.028 C 
ATOM     36  C   UNL     1     -11.841   9.569  70.866  1.00  0.00     0.031 C 
ATOM     37  C   UNL     1     -10.827   9.024  68.640  1.00  0.00     0.031 C 
ATOM     38  C   UNL     1      -9.358   9.315  70.652  1.00  0.00     0.031 C 
ENDBRANCH  33  35
ENDBRANCH  28  29
BRANCH  28  39
ATOM     39  C   UNL     1      -9.886  14.638  66.601  1.00  0.00    -0.011 C 
ATOM     40  C   UNL     1     -10.277  13.711  65.433  1.00  0.00     0.013 C 
ATOM     41  C   UNL     1     -11.183  15.099  67.297  1.00  0.00     0.013 C 
ATOM     42  C   UNL     1      -9.173  15.879  66.029  1.00  0.00     0.013 C 
ENDBRANCH  28  39
ENDBRANCH  10  28
TORSDOF 10

ENDMDL
MODEL 4
REMARK VINA RESULT:    -5.647      3.991      6.808
REMARK INTER + INTRA:         -11.147
REMARK INTER:                  -9.596
REMARK INTRA:                  -1.551
REMARK UNBOUND:                -2.199
REMARK SMILES CC(C)(C)NC(=O)N[C@H](C(=O)N1C[C@H]2[C@@H]([C@H]1C(=O)N[C@@H](CC1CCC1)C(=O)C(N)=O)C2(C)C)C(C)(C)C
REMARK SMILES IDX 11 1 12 2 15 3 31 4 14 5 16 6 13 7 32 8 33 9 10 10 17 11
REMARK SMILES IDX 18 12 19 13 20 15 21 16 22 17 23 18 25 19 24 20 26 21 27 22
REMARK SMILES IDX 28 23 30 24 29 25 9 28 8 29 6 30 7 32 5 33 2 35 1 36 3 37
REMARK SMILES IDX 4 38 34 39 35 40 36 41 37 42
REMARK H PARENT 19 14 29 26 29 27 8 31 5 34
REMARK INDEX MAP 2 1 6 2 11 3 12 4 13 5 14 6 15 7 16 8 17 9 19 10 18 11 1 12
REMARK INDEX MAP 7 13 38 14 22 15 23 16 24 17 29 18 30 19 31 20 28 21 3 22
REMARK INDEX MAP 33 23 5 24 10 25 41 26 42 27 20 28 8 29 32 30 39 31 4 32 9 33
REMARK INDEX MAP 40 34 34 35 35 36 36 37 37 38 21 39 25 40 26 41 27 42
REMARK Flexibility Score: inf
ROOT
ATOM      1  O   UNL     1     -10.036  10.039  65.269  1.00  0.00    -0.274 OA
ATOM      2  N   UNL     1      -9.532  10.053  67.529  1.00  0.00    -0.288 N 
ATOM      3  C   UNL     1     -10.796  10.565  69.441  1.00  0.00     0.030 C 
ATOM      4  C   UNL     1     -10.819   9.197  70.070  1.00  0.00    -0.025 C 
ATOM      5  C   UNL     1      -9.520   9.930  69.873  1.00  0.00     0.018 C 
ATOM      6  C   UNL     1     -10.756  10.739  67.953  1.00  0.00     0.166 C 
ATOM      7  C   UNL     1      -8.675   9.685  68.664  1.00  0.00     0.113 C 
ATOM      8  C   UNL     1     -11.376   9.025  71.442  1.00  0.00     0.011 C 
ATOM      9  C   UNL     1     -11.088   8.039  69.171  1.00  0.00     0.011 C 
ATOM     10  C   UNL     1      -9.299   9.716  66.202  1.00  0.00     0.237 C 
ENDROOT
BRANCH   6  11
ATOM     11  C   UNL     1     -10.582  12.172  67.562  1.00  0.00     0.234 C 
ATOM     12  O   UNL     1      -9.920  12.953  68.241  1.00  0.00    -0.274 OA
ATOM     13  N   UNL     1     -11.261  12.484  66.396  1.00  0.00    -0.304 N 
ATOM     14  H   UNL     1     -11.759  11.768  65.939  1.00  0.00     0.149 HD
BRANCH  13  15
ATOM     15  C   UNL     1     -11.271  13.807  65.817  1.00  0.00     0.149 C 
BRANCH  15  16
ATOM     16  C   UNL     1      -9.852  14.331  65.584  1.00  0.00     0.034 C 
BRANCH  16  17
ATOM     17  C   UNL     1      -9.773  15.835  65.827  1.00  0.00    -0.009 C 
ATOM     18  C   UNL     1     -10.436  16.314  67.135  1.00  0.00     0.003 C 
ATOM     19  C   UNL     1      -8.433  16.323  66.416  1.00  0.00     0.003 C 
ATOM     20  C   UNL     1      -9.257  17.300  67.280  1.00  0.00     0.001 C 
ENDBRANCH  16  17
ENDBRANCH  15  16
BRANCH  15  21
ATOM     21  C   UNL     1     -12.063  13.809  64.519  1.00  0.00     0.237 C 
ATOM     22  O   UNL     1     -12.622  14.793  64.048  1.00  0.00    -0.285 OA
BRANCH  21  23
ATOM     23  C   UNL     1     -12.271  12.515  63.787  1.00  0.00     0.279 C 
ATOM     24  O   UNL     1     -13.344  11.948  63.894  1.00  0.00    -0.267 OA
ATOM     25  N   UNL     1     -11.164  12.106  63.090  1.00  0.00    -0.323 N 
ATOM     26  H   UNL     1     -11.190  11.268  62.573  1.00  0.00     0.145 HD
ATOM     27  H   UNL     1     -10.343  12.649  63.107  1.00  0.00     0.145 HD
ENDBRANCH  21  23
ENDBRANCH  15  21
ENDBRANCH  13  15
ENDBRANCH   6  11
BRANCH  10  28
ATOM     28  C   UNL     1      -8.054   8.907  65.943  1.00  0.00     0.166 C 
BRANCH  28  29
ATOM     29  N   UNL     1      -8.520   7.782  65.177  1.00  0.00    -0.288 N 
ATOM     30  C   UNL     1      -8.597   6.484  65.687  1.00  0.00     0.301 C 
ATOM     31  H   UNL     1      -8.798   7.936  64.245  1.00  0.00     0.151 HD
ATOM     32  O   UNL     1      -8.279   6.171  66.833  1.00  0.00    -0.253 OA
ATOM     33  N   UNL     1      -9.080   5.591  64.734  1.00  0.00    -0.295 N 
ATOM     34  H   UNL     1      -9.311   5.934  63.841  1.00  0.00     0.151 HD
BRANCH  33  35
ATOM     35  C   UNL     1      -9.259   4.183  65.002  1.00  0.00     0.028 C 
ATOM     36  C   UNL     1      -9.958   4.009  66.354  1.00  0.00     0.031 C 
ATOM     37  C   UNL     1     -10.118   3.569  63.891  1.00  0.00     0.031 C 
ATOM     38  C   UNL     1      -7.889   3.496  65.038  1.00  0.00     0.031 C 
ENDBRANCH  33  35
ENDBRANCH  28  29
BRANCH  28  39
ATOM     39  C   UNL     1      -6.926   9.716  65.260  1.00  0.00    -0.011 C 
ATOM     40  C   UNL     1      -6.756  11.077  65.964  1.00  0.00     0.013 C 
ATOM     41  C   UNL     1      -5.597   8.944  65.392  1.00  0.00     0.013 C 
ATOM     42  C   UNL     1      -7.198   9.965  63.763  1.00  0.00     0.013 C 
ENDBRANCH  28  39
ENDBRANCH  10  28
TORSDOF 10

ENDMDL
MODEL 5
REMARK VINA RESULT:    -5.637      2.749      8.634
REMARK INTER + INTRA:         -11.130
REMARK INTER:                  -9.562
REMARK INTRA:                  -1.568
REMARK UNBOUND:                -2.199
REMARK SMILES CC(C)(C)NC(=O)N[C@H](C(=O)N1C[C@H]2[C@@H]([C@H]1C(=O)N[C@@H](CC1CCC1)C(=O)C(N)=O)C2(C)C)C(C)(C)C
REMARK SMILES IDX 11 1 12 2 15 3 31 4 14 5 16 6 13 7 32 8 33 9 10 10 17 11
REMARK SMILES IDX 18 12 19 13 20 15 21 16 22 17 23 18 25 19 24 20 26 21 27 22
REMARK SMILES IDX 28 23 30 24 29 25 9 28 8 29 6 30 7 32 5 33 2 35 1 36 3 37
REMARK SMILES IDX 4 38 34 39 35 40 36 41 37 42
REMARK H PARENT 19 14 29 26 29 27 8 31 5 34
REMARK INDEX MAP 2 1 6 2 11 3 12 4 13 5 14 6 15 7 16 8 17 9 19 10 18 11 1 12
REMARK INDEX MAP 7 13 38 14 22 15 23 16 24 17 29 18 30 19 31 20 28 21 3 22
REMARK INDEX MAP 33 23 5 24 10 25 41 26 42 27 20 28 8 29 32 30 39 31 4 32 9 33
REMARK INDEX MAP 40 34 34 35 35 36 36 37 37 38 21 39 25 40 26 41 27 42
REMARK Flexibility Score: inf
ROOT
ATOM      1  O   UNL     1      -8.265  16.964  65.880  1.00  0.00    -0.274 OA
ATOM      2  N   UNL     1      -7.196  17.209  67.919  1.00  0.00    -0.288 N 
ATOM      3  C   UNL     1      -5.806  15.788  69.171  1.00  0.00     0.030 C 
ATOM      4  C   UNL     1      -4.533  16.587  69.089  1.00  0.00    -0.025 C 
ATOM      5  C   UNL     1      -5.751  17.150  69.769  1.00  0.00     0.018 C 
ATOM      6  C   UNL     1      -6.808  15.801  68.057  1.00  0.00     0.166 C 
ATOM      7  C   UNL     1      -6.703  18.035  69.030  1.00  0.00     0.113 C 
ATOM      8  C   UNL     1      -3.351  16.177  69.901  1.00  0.00     0.011 C 
ATOM      9  C   UNL     1      -4.171  17.158  67.761  1.00  0.00     0.011 C 
ATOM     10  C   UNL     1      -7.863  17.682  66.797  1.00  0.00     0.237 C 
ENDROOT
BRANCH   6  11
ATOM     11  C   UNL     1      -8.058  15.063  68.420  1.00  0.00     0.234 C 
ATOM     12  O   UNL     1      -8.437  14.965  69.584  1.00  0.00    -0.274 OA
ATOM     13  N   UNL     1      -8.682  14.513  67.314  1.00  0.00    -0.304 N 
ATOM     14  H   UNL     1      -8.280  14.661  66.427  1.00  0.00     0.149 HD
BRANCH  13  15
ATOM     15  C   UNL     1      -9.895  13.733  67.396  1.00  0.00     0.149 C 
BRANCH  15  16
ATOM     16  C   UNL     1     -11.137  14.600  67.181  1.00  0.00     0.034 C 
BRANCH  16  17
ATOM     17  C   UNL     1     -12.078  14.522  68.380  1.00  0.00    -0.009 C 
ATOM     18  C   UNL     1     -11.708  13.447  69.424  1.00  0.00     0.003 C 
ATOM     19  C   UNL     1     -11.811  15.572  69.478  1.00  0.00     0.003 C 
ATOM     20  C   UNL     1     -12.126  14.465  70.506  1.00  0.00     0.001 C 
ENDBRANCH  16  17
ENDBRANCH  15  16
BRANCH  15  21
ATOM     21  C   UNL     1      -9.858  12.591  66.393  1.00  0.00     0.237 C 
ATOM     22  O   UNL     1      -9.027  11.691  66.395  1.00  0.00    -0.285 OA
BRANCH  21  23
ATOM     23  C   UNL     1     -10.837  12.587  65.254  1.00  0.00     0.279 C 
ATOM     24  O   UNL     1     -11.932  12.080  65.426  1.00  0.00    -0.267 OA
ATOM     25  N   UNL     1     -10.335  13.148  64.109  1.00  0.00    -0.323 N 
ATOM     26  H   UNL     1     -10.893  13.197  63.300  1.00  0.00     0.145 HD
ATOM     27  H   UNL     1      -9.416  13.501  64.095  1.00  0.00     0.145 HD
ENDBRANCH  21  23
ENDBRANCH  15  21
ENDBRANCH  13  15
ENDBRANCH   6  11
BRANCH  10  28
ATOM     28  C   UNL     1      -8.082  19.172  66.749  1.00  0.00     0.166 C 
BRANCH  28  29
ATOM     29  N   UNL     1      -7.604  19.556  65.449  1.00  0.00    -0.288 N 
ATOM     30  C   UNL     1      -6.256  19.783  65.162  1.00  0.00     0.301 C 
ATOM     31  H   UNL     1      -8.260  19.665  64.723  1.00  0.00     0.151 HD
ATOM     32  O   UNL     1      -5.346  19.678  65.983  1.00  0.00    -0.253 OA
ATOM     33  N   UNL     1      -6.072  20.141  63.829  1.00  0.00    -0.295 N 
ATOM     34  H   UNL     1      -6.861  20.199  63.243  1.00  0.00     0.151 HD
BRANCH  33  35
ATOM     35  C   UNL     1      -4.773  20.431  63.269  1.00  0.00     0.028 C 
ATOM     36  C   UNL     1      -4.943  20.947  61.836  1.00  0.00     0.031 C 
ATOM     37  C   UNL     1      -4.086  21.499  64.126  1.00  0.00     0.031 C 
ATOM     38  C   UNL     1      -3.929  19.151  63.258  1.00  0.00     0.031 C 
ENDBRANCH  33  35
ENDBRANCH  28  29
BRANCH  28  39
ATOM     39  C   UNL     1      -9.546  19.587  67.034  1.00  0.00    -0.011 C 
ATOM     40  C   UNL     1     -10.186  18.601  68.032  1.00  0.00     0.013 C 
ATOM     41  C   UNL     1      -9.559  20.990  67.677  1.00  0.00     0.013 C 
ATOM     42  C   UNL     1     -10.409  19.628  65.758  1.00  0.00     0.013 C 
ENDBRANCH  28  39
ENDBRANCH  10  28
TORSDOF 10

ENDMDL
MODEL 6
REMARK VINA RESULT:    -5.620      2.422      8.309
REMARK INTER + INTRA:         -11.105
REMARK INTER:                  -9.409
REMARK INTRA:                  -1.696
REMARK UNBOUND:                -2.199
REMARK SMILES CC(C)(C)NC(=O)N[C@H](C(=O)N1C[C@H]2[C@@H]([C@H]1C(=O)N[C@@H](CC1CCC1)C(=O)C(N)=O)C2(C)C)C(C)(C)C
REMARK SMILES IDX 11 1 12 2 15 3 31 4 14 5 16 6 13 7 32 8 33 9 10 10 17 11
REMARK SMILES IDX 18 12 19 13 20 15 21 16 22 17 23 18 25 19 24 20 26 21 27 22
REMARK SMILES IDX 28 23 30 24 29 25 9 28 8 29 6 30 7 32 5 33 2 35 1 36 3 37
REMARK SMILES IDX 4 38 34 39 35 40 36 41 37 42
REMARK H PARENT 19 14 29 26 29 27 8 31 5 34
REMARK INDEX MAP 2 1 6 2 11 3 12 4 13 5 14 6 15 7 16 8 17 9 19 10 18 11 1 12
REMARK INDEX MAP 7 13 38 14 22 15 23 16 24 17 29 18 30 19 31 20 28 21 3 22
REMARK INDEX MAP 33 23 5 24 10 25 41 26 42 27 20 28 8 29 32 30 39 31 4 32 9 33
REMARK INDEX MAP 40 34 34 35 35 36 36 37 37 38 21 39 25 40 26 41 27 42
REMARK Flexibility Score: inf
ROOT
ATOM      1  O   UNL     1      -8.965  16.636  66.063  1.00  0.00    -0.274 OA
ATOM      2  N   UNL     1      -7.757  16.463  68.032  1.00  0.00    -0.288 N 
ATOM      3  C   UNL     1      -6.895  14.627  69.216  1.00  0.00     0.030 C 
ATOM      4  C   UNL     1      -5.428  14.919  69.049  1.00  0.00    -0.025 C 
ATOM      5  C   UNL     1      -6.321  15.875  69.792  1.00  0.00     0.018 C 
ATOM      6  C   UNL     1      -7.892  15.008  68.164  1.00  0.00     0.166 C 
ATOM      7  C   UNL     1      -6.936  17.048  69.099  1.00  0.00     0.113 C 
ATOM      8  C   UNL     1      -4.424  14.106  69.793  1.00  0.00     0.011 C 
ATOM      9  C   UNL     1      -4.967  15.335  67.694  1.00  0.00     0.011 C 
ATOM     10  C   UNL     1      -8.278  17.153  66.945  1.00  0.00     0.237 C 
ENDROOT
BRANCH   6  11
ATOM     11  C   UNL     1      -9.299  14.764  68.611  1.00  0.00     0.234 C 
ATOM     12  O   UNL     1      -9.797  15.382  69.547  1.00  0.00    -0.274 OA
ATOM     13  N   UNL     1      -9.918  13.772  67.870  1.00  0.00    -0.304 N 
ATOM     14  H   UNL     1      -9.413  13.347  67.140  1.00  0.00     0.149 HD
BRANCH  13  15
ATOM     15  C   UNL     1     -11.272  13.331  68.116  1.00  0.00     0.149 C 
BRANCH  15  16
ATOM     16  C   UNL     1     -12.216  13.758  66.989  1.00  0.00     0.034 C 
BRANCH  16  17
ATOM     17  C   UNL     1     -11.591  13.504  65.621  1.00  0.00    -0.009 C 
ATOM     18  C   UNL     1     -12.202  12.321  64.840  1.00  0.00     0.003 C 
ATOM     19  C   UNL     1     -12.113  14.418  64.493  1.00  0.00     0.003 C 
ATOM     20  C   UNL     1     -12.055  13.184  63.569  1.00  0.00     0.001 C 
ENDBRANCH  16  17
ENDBRANCH  15  16
BRANCH  15  21
ATOM     21  C   UNL     1     -11.310  11.823  68.303  1.00  0.00     0.237 C 
ATOM     22  O   UNL     1     -12.334  11.170  68.473  1.00  0.00    -0.285 OA
BRANCH  21  23
ATOM     23  C   UNL     1     -10.018  11.062  68.383  1.00  0.00     0.279 C 
ATOM     24  O   UNL     1      -9.339  10.957  67.376  1.00  0.00    -0.267 OA
ATOM     25  N   UNL     1      -9.779  10.534  69.624  1.00  0.00    -0.323 N 
ATOM     26  H   UNL     1      -8.958  10.015  69.788  1.00  0.00     0.145 HD
ATOM     27  H   UNL     1     -10.428  10.672  70.352  1.00  0.00     0.145 HD
ENDBRANCH  21  23
ENDBRANCH  15  21
ENDBRANCH  13  15
ENDBRANCH   6  11
BRANCH  10  28
ATOM     28  C   UNL     1      -7.952  18.624  66.890  1.00  0.00     0.166 C 
BRANCH  28  29
ATOM     29  N   UNL     1      -7.383  18.810  65.583  1.00  0.00    -0.288 N 
ATOM     30  C   UNL     1      -6.008  18.843  65.340  1.00  0.00     0.301 C 
ATOM     31  H   UNL     1      -7.995  18.920  64.820  1.00  0.00     0.151 HD
ATOM     32  O   UNL     1      -5.149  18.717  66.211  1.00  0.00    -0.253 OA
ATOM     33  N   UNL     1      -5.734  19.035  63.989  1.00  0.00    -0.295 N 
ATOM     34  H   UNL     1      -6.488  19.125  63.363  1.00  0.00     0.151 HD
BRANCH  33  35
ATOM     35  C   UNL     1      -4.390  19.107  63.466  1.00  0.00     0.028 C 
ATOM     36  C   UNL     1      -3.684  20.335  64.051  1.00  0.00     0.031 C 
ATOM     37  C   UNL     1      -3.630  17.836  63.862  1.00  0.00     0.031 C 
ATOM     38  C   UNL     1      -4.446  19.225  61.939  1.00  0.00     0.031 C 
ENDBRANCH  33  35
ENDBRANCH  28  29
BRANCH  28  39
ATOM     39  C   UNL     1      -9.168  19.534  67.188  1.00  0.00    -0.011 C 
ATOM     40  C   UNL     1      -9.942  18.994  68.408  1.00  0.00     0.013 C 
ATOM     41  C   UNL     1      -8.668  20.952  67.533  1.00  0.00     0.013 C 
ATOM     42  C   UNL     1     -10.138  19.636  65.995  1.00  0.00     0.013 C 
ENDBRANCH  28  39
ENDBRANCH  10  28
TORSDOF 10

ENDMDL
MODEL 7
REMARK VINA RESULT:    -5.585      3.855      7.106
REMARK INTER + INTRA:         -11.049
REMARK INTER:                  -9.963
REMARK INTRA:                  -1.085
REMARK UNBOUND:                -2.199
REMARK SMILES CC(C)(C)NC(=O)N[C@H](C(=O)N1C[C@H]2[C@@H]([C@H]1C(=O)N[C@@H](CC1CCC1)C(=O)C(N)=O)C2(C)C)C(C)(C)C
REMARK SMILES IDX 11 1 12 2 15 3 31 4 14 5 16 6 13 7 32 8 33 9 10 10 17 11
REMARK SMILES IDX 18 12 19 13 20 15 21 16 22 17 23 18 25 19 24 20 26 21 27 22
REMARK SMILES IDX 28 23 30 24 29 25 9 28 8 29 6 30 7 32 5 33 2 35 1 36 3 37
REMARK SMILES IDX 4 38 34 39 35 40 36 41 37 42
REMARK H PARENT 19 14 29 26 29 27 8 31 5 34
REMARK INDEX MAP 2 1 6 2 11 3 12 4 13 5 14 6 15 7 16 8 17 9 19 10 18 11 1 12
REMARK INDEX MAP 7 13 38 14 22 15 23 16 24 17 29 18 30 19 31 20 28 21 3 22
REMARK INDEX MAP 33 23 5 24 10 25 41 26 42 27 20 28 8 29 32 30 39 31 4 32 9 33
REMARK INDEX MAP 40 34 34 35 35 36 36 37 37 38 21 39 25 40 26 41 27 42
REMARK Flexibility Score: inf
ROOT
ATOM      1  O   UNL     1     -10.499   9.799  66.103  1.00  0.00    -0.274 OA
ATOM      2  N   UNL     1      -9.706   9.632  68.273  1.00  0.00    -0.288 N 
ATOM      3  C   UNL     1     -10.707   9.987  70.368  1.00  0.00     0.030 C 
ATOM      4  C   UNL     1     -10.660   8.573  70.883  1.00  0.00    -0.025 C 
ATOM      5  C   UNL     1      -9.392   9.323  70.578  1.00  0.00     0.018 C 
ATOM      6  C   UNL     1     -10.859  10.280  68.906  1.00  0.00     0.166 C 
ATOM      7  C   UNL     1      -8.713   9.176  69.254  1.00  0.00     0.113 C 
ATOM      8  C   UNL     1     -11.036   8.291  72.298  1.00  0.00     0.011 C 
ATOM      9  C   UNL     1     -11.053   7.490  69.938  1.00  0.00     0.011 C 
ATOM     10  C   UNL     1      -9.650   9.403  66.905  1.00  0.00     0.237 C 
ENDROOT
BRANCH   6  11
ATOM     11  C   UNL     1     -10.725  11.740  68.610  1.00  0.00     0.234 C 
ATOM     12  O   UNL     1      -9.628  12.272  68.461  1.00  0.00    -0.274 OA
ATOM     13  N   UNL     1     -11.952  12.379  68.556  1.00  0.00    -0.304 N 
ATOM     14  H   UNL     1     -12.766  11.843  68.693  1.00  0.00     0.149 HD
BRANCH  13  15
ATOM     15  C   UNL     1     -12.095  13.795  68.309  1.00  0.00     0.149 C 
BRANCH  15  16
ATOM     16  C   UNL     1     -11.376  14.628  69.373  1.00  0.00     0.034 C 
BRANCH  16  17
ATOM     17  C   UNL     1     -12.373  15.307  70.307  1.00  0.00    -0.009 C 
ATOM     18  C   UNL     1     -12.904  14.413  71.447  1.00  0.00     0.003 C 
ATOM     19  C   UNL     1     -11.735  16.190  71.400  1.00  0.00     0.003 C 
ATOM     20  C   UNL     1     -12.821  15.656  72.357  1.00  0.00     0.001 C 
ENDBRANCH  16  17
ENDBRANCH  15  16
BRANCH  15  21
ATOM     21  C   UNL     1     -11.582  14.143  66.920  1.00  0.00     0.237 C 
ATOM     22  O   UNL     1     -10.681  14.942  66.693  1.00  0.00    -0.285 OA
BRANCH  21  23
ATOM     23  C   UNL     1     -12.267  13.557  65.719  1.00  0.00     0.279 C 
ATOM     24  O   UNL     1     -13.326  14.038  65.356  1.00  0.00    -0.267 OA
ATOM     25  N   UNL     1     -11.598  12.486  65.187  1.00  0.00    -0.323 N 
ATOM     26  H   UNL     1     -11.959  12.025  64.395  1.00  0.00     0.145 HD
ATOM     27  H   UNL     1     -10.757  12.178  65.595  1.00  0.00     0.145 HD
ENDBRANCH  21  23
ENDBRANCH  15  21
ENDBRANCH  13  15
ENDBRANCH   6  11
BRANCH  10  28
ATOM     28  C   UNL     1      -8.456   8.619  66.422  1.00  0.00     0.166 C 
BRANCH  28  29
ATOM     29  N   UNL     1      -9.027   7.554  65.643  1.00  0.00    -0.288 N 
ATOM     30  C   UNL     1      -8.665   6.214  65.791  1.00  0.00     0.301 C 
ATOM     31  H   UNL     1      -9.708   7.783  64.969  1.00  0.00     0.151 HD
ATOM     32  O   UNL     1      -7.829   5.808  66.597  1.00  0.00    -0.253 OA
ATOM     33  N   UNL     1      -9.370   5.396  64.913  1.00  0.00    -0.295 N 
ATOM     34  H   UNL     1     -10.023   5.810  64.302  1.00  0.00     0.151 HD
BRANCH  33  35
ATOM     35  C   UNL     1      -9.188   3.964  64.859  1.00  0.00     0.028 C 
ATOM     36  C   UNL     1      -9.367   3.378  66.263  1.00  0.00     0.031 C 
ATOM     37  C   UNL     1     -10.229   3.363  63.909  1.00  0.00     0.031 C 
ATOM     38  C   UNL     1      -7.776   3.652  64.348  1.00  0.00     0.031 C 
ENDBRANCH  33  35
ENDBRANCH  28  29
BRANCH  28  39
ATOM     39  C   UNL     1      -7.423   9.481  65.658  1.00  0.00    -0.011 C 
ATOM     40  C   UNL     1      -6.016   8.866  65.805  1.00  0.00     0.013 C 
ATOM     41  C   UNL     1      -7.782   9.493  64.158  1.00  0.00     0.013 C 
ATOM     42  C   UNL     1      -7.379  10.937  66.160  1.00  0.00     0.013 C 
ENDBRANCH  28  39
ENDBRANCH  10  28
TORSDOF 10

ENDMDL
MODEL 8
REMARK VINA RESULT:    -5.371      2.686      8.269
REMARK INTER + INTRA:         -10.709
REMARK INTER:                  -9.770
REMARK INTRA:                  -0.940
REMARK UNBOUND:                -2.199
REMARK SMILES CC(C)(C)NC(=O)N[C@H](C(=O)N1C[C@H]2[C@@H]([C@H]1C(=O)N[C@@H](CC1CCC1)C(=O)C(N)=O)C2(C)C)C(C)(C)C
REMARK SMILES IDX 11 1 12 2 15 3 31 4 14 5 16 6 13 7 32 8 33 9 10 10 17 11
REMARK SMILES IDX 18 12 19 13 20 15 21 16 22 17 23 18 25 19 24 20 26 21 27 22
REMARK SMILES IDX 28 23 30 24 29 25 9 28 8 29 6 30 7 32 5 33 2 35 1 36 3 37
REMARK SMILES IDX 4 38 34 39 35 40 36 41 37 42
REMARK H PARENT 19 14 29 26 29 27 8 31 5 34
REMARK INDEX MAP 2 1 6 2 11 3 12 4 13 5 14 6 15 7 16 8 17 9 19 10 18 11 1 12
REMARK INDEX MAP 7 13 38 14 22 15 23 16 24 17 29 18 30 19 31 20 28 21 3 22
REMARK INDEX MAP 33 23 5 24 10 25 41 26 42 27 20 28 8 29 32 30 39 31 4 32 9 33
REMARK INDEX MAP 40 34 34 35 35 36 36 37 37 38 21 39 25 40 26 41 27 42
REMARK Flexibility Score: inf
ROOT
ATOM      1  O   UNL     1      -7.766  14.737  69.274  1.00  0.00    -0.274 OA
ATOM      2  N   UNL     1      -7.921  16.374  67.643  1.00  0.00    -0.288 N 
ATOM      3  C   UNL     1      -9.737  17.561  66.743  1.00  0.00     0.030 C 
ATOM      4  C   UNL     1      -9.374  18.937  67.237  1.00  0.00    -0.025 C 
ATOM      5  C   UNL     1      -8.475  18.202  66.279  1.00  0.00     0.018 C 
ATOM      6  C   UNL     1      -9.382  16.333  67.525  1.00  0.00     0.166 C 
ATOM      7  C   UNL     1      -7.319  17.396  66.777  1.00  0.00     0.113 C 
ATOM      8  C   UNL     1     -10.154  20.118  66.768  1.00  0.00     0.011 C 
ATOM      9  C   UNL     1      -8.912  19.054  68.649  1.00  0.00     0.011 C 
ATOM     10  C   UNL     1      -7.234  15.588  68.559  1.00  0.00     0.237 C 
ENDROOT
BRANCH   6  11
ATOM     11  C   UNL     1      -9.700  15.079  66.774  1.00  0.00     0.234 C 
ATOM     12  O   UNL     1      -9.097  14.768  65.750  1.00  0.00    -0.274 OA
ATOM     13  N   UNL     1     -10.736  14.368  67.355  1.00  0.00    -0.304 N 
ATOM     14  H   UNL     1     -11.142  14.721  68.179  1.00  0.00     0.149 HD
BRANCH  13  15
ATOM     15  C   UNL     1     -11.250  13.133  66.810  1.00  0.00     0.149 C 
BRANCH  15  16
ATOM     16  C   UNL     1     -12.019  12.331  67.863  1.00  0.00     0.034 C 
BRANCH  16  17
ATOM     17  C   UNL     1     -11.316  11.013  68.173  1.00  0.00    -0.009 C 
ATOM     18  C   UNL     1      -9.792  11.127  68.388  1.00  0.00     0.003 C 
ATOM     19  C   UNL     1     -11.413  10.561  69.645  1.00  0.00     0.003 C 
ATOM     20  C   UNL     1      -9.951  10.085  69.516  1.00  0.00     0.001 C 
ENDBRANCH  16  17
ENDBRANCH  15  16
BRANCH  15  21
ATOM     21  C   UNL     1     -12.130  13.413  65.602  1.00  0.00     0.237 C 
ATOM     22  O   UNL     1     -13.182  14.041  65.641  1.00  0.00    -0.285 OA
BRANCH  21  23
ATOM     23  C   UNL     1     -11.762  12.817  64.275  1.00  0.00     0.279 C 
ATOM     24  O   UNL     1     -12.654  12.435  63.537  1.00  0.00    -0.267 OA
ATOM     25  N   UNL     1     -10.409  12.746  64.072  1.00  0.00    -0.323 N 
ATOM     26  H   UNL     1     -10.056  12.371  63.232  1.00  0.00     0.145 HD
ATOM     27  H   UNL     1      -9.789  13.069  64.766  1.00  0.00     0.145 HD
ENDBRANCH  21  23
ENDBRANCH  15  21
ENDBRANCH  13  15
ENDBRANCH   6  11
BRANCH  10  28
ATOM     28  C   UNL     1      -5.749  15.832  68.645  1.00  0.00     0.166 C 
BRANCH  28  29
ATOM     29  N   UNL     1      -5.617  16.846  69.655  1.00  0.00    -0.288 N 
ATOM     30  C   UNL     1      -4.972  18.066  69.441  1.00  0.00     0.301 C 
ATOM     31  H   UNL     1      -6.001  16.671  70.545  1.00  0.00     0.151 HD
ATOM     32  O   UNL     1      -4.455  18.398  68.375  1.00  0.00    -0.253 OA
ATOM     33  N   UNL     1      -4.989  18.859  70.585  1.00  0.00    -0.295 N 
ATOM     34  H   UNL     1      -5.428  18.511  71.394  1.00  0.00     0.151 HD
BRANCH  33  35
ATOM     35  C   UNL     1      -4.391  20.173  70.635  1.00  0.00     0.028 C 
ATOM     36  C   UNL     1      -5.028  21.061  69.561  1.00  0.00     0.031 C 
ATOM     37  C   UNL     1      -4.634  20.780  72.020  1.00  0.00     0.031 C 
ATOM     38  C   UNL     1      -2.884  20.054  70.377  1.00  0.00     0.031 C 
ENDBRANCH  33  35
ENDBRANCH  28  29
BRANCH  28  39
ATOM     39  C   UNL     1      -4.931  14.549  68.923  1.00  0.00    -0.011 C 
ATOM     40  C   UNL     1      -5.371  13.427  67.962  1.00  0.00     0.013 C 
ATOM     41  C   UNL     1      -3.436  14.835  68.668  1.00  0.00     0.013 C 
ATOM     42  C   UNL     1      -5.090  14.047  70.372  1.00  0.00     0.013 C 
ENDBRANCH  28  39
ENDBRANCH  10  28
TORSDOF 10

ENDMDL
MODEL 9
REMARK VINA RESULT:    -5.155      3.633      6.742
REMARK INTER + INTRA:         -10.367
REMARK INTER:                  -8.729
REMARK INTRA:                  -1.637
REMARK UNBOUND:                -2.199
REMARK SMILES CC(C)(C)NC(=O)N[C@H](C(=O)N1C[C@H]2[C@@H]([C@H]1C(=O)N[C@@H](CC1CCC1)C(=O)C(N)=O)C2(C)C)C(C)(C)C
REMARK SMILES IDX 11 1 12 2 15 3 31 4 14 5 16 6 13 7 32 8 33 9 10 10 17 11
REMARK SMILES IDX 18 12 19 13 20 15 21 16 22 17 23 18 25 19 24 20 26 21 27 22
REMARK SMILES IDX 28 23 30 24 29 25 9 28 8 29 6 30 7 32 5 33 2 35 1 36 3 37
REMARK SMILES IDX 4 38 34 39 35 40 36 41 37 42
REMARK H PARENT 19 14 29 26 29 27 8 31 5 34
REMARK INDEX MAP 2 1 6 2 11 3 12 4 13 5 14 6 15 7 16 8 17 9 19 10 18 11 1 12
REMARK INDEX MAP 7 13 38 14 22 15 23 16 24 17 29 18 30 19 31 20 28 21 3 22
REMARK INDEX MAP 33 23 5 24 10 25 41 26 42 27 20 28 8 29 32 30 39 31 4 32 9 33
REMARK INDEX MAP 40 34 34 35 35 36 36 37 37 38 21 39 25 40 26 41 27 42
REMARK Flexibility Score: inf
ROOT
ATOM      1  O   UNL     1     -10.054   9.790  69.699  1.00  0.00    -0.274 OA
ATOM      2  N   UNL     1      -8.585   8.968  68.109  1.00  0.00    -0.288 N 
ATOM      3  C   UNL     1      -7.208  10.013  66.519  1.00  0.00     0.030 C 
ATOM      4  C   UNL     1      -5.870   9.619  67.084  1.00  0.00    -0.025 C 
ATOM      5  C   UNL     1      -6.835   8.574  66.595  1.00  0.00     0.018 C 
ATOM      6  C   UNL     1      -8.394  10.241  67.406  1.00  0.00     0.166 C 
ATOM      7  C   UNL     1      -7.768   7.888  67.540  1.00  0.00     0.113 C 
ATOM      8  C   UNL     1      -4.629   9.907  66.310  1.00  0.00     0.011 C 
ATOM      9  C   UNL     1      -5.691   9.741  68.559  1.00  0.00     0.011 C 
ATOM     10  C   UNL     1      -9.378   8.866  69.244  1.00  0.00     0.237 C 
ENDROOT
BRANCH   6  11
ATOM     11  C   UNL     1      -9.647  10.469  66.620  1.00  0.00     0.234 C 
ATOM     12  O   UNL     1     -10.061   9.645  65.809  1.00  0.00    -0.274 OA
ATOM     13  N   UNL     1     -10.229  11.692  66.905  1.00  0.00    -0.304 N 
ATOM     14  H   UNL     1      -9.801  12.269  67.579  1.00  0.00     0.149 HD
BRANCH  13  15
ATOM     15  C   UNL     1     -11.435  12.162  66.264  1.00  0.00     0.149 C 
BRANCH  15  16
ATOM     16  C   UNL     1     -12.102  13.279  67.069  1.00  0.00     0.034 C 
BRANCH  16  17
ATOM     17  C   UNL     1     -11.293  13.616  68.319  1.00  0.00    -0.009 C 
ATOM     18  C   UNL     1     -11.001  15.118  68.516  1.00  0.00     0.003 C 
ATOM     19  C   UNL     1     -12.117  13.683  69.621  1.00  0.00     0.003 C 
ATOM     20  C   UNL     1     -11.241  14.888  70.023  1.00  0.00     0.001 C 
ENDBRANCH  16  17
ENDBRANCH  15  16
BRANCH  15  21
ATOM     21  C   UNL     1     -11.133  12.630  64.849  1.00  0.00     0.237 C 
ATOM     22  O   UNL     1     -10.430  13.595  64.572  1.00  0.00    -0.285 OA
BRANCH  21  23
ATOM     23  C   UNL     1     -11.799  11.941  63.693  1.00  0.00     0.279 C 
ATOM     24  O   UNL     1     -12.973  12.181  63.468  1.00  0.00    -0.267 OA
ATOM     25  N   UNL     1     -10.973  11.069  63.035  1.00  0.00    -0.323 N 
ATOM     26  H   UNL     1     -11.308  10.563  62.260  1.00  0.00     0.145 HD
ATOM     27  H   UNL     1     -10.044  10.947  63.338  1.00  0.00     0.145 HD
ENDBRANCH  21  23
ENDBRANCH  15  21
ENDBRANCH  13  15
ENDBRANCH   6  11
BRANCH  10  28
ATOM     28  C   UNL     1      -9.377   7.520  69.922  1.00  0.00     0.166 C 
BRANCH  28  29
ATOM     29  N   UNL     1      -9.139   7.824  71.307  1.00  0.00    -0.288 N 
ATOM     30  C   UNL     1      -7.882   7.733  71.909  1.00  0.00     0.301 C 
ATOM     31  H   UNL     1      -9.901   8.111  71.859  1.00  0.00     0.151 HD
ATOM     32  O   UNL     1      -6.857   7.387  71.323  1.00  0.00    -0.253 OA
ATOM     33  N   UNL     1      -7.935   8.084  73.255  1.00  0.00    -0.295 N 
ATOM     34  H   UNL     1      -8.802   8.349  73.639  1.00  0.00     0.151 HD
BRANCH  33  35
ATOM     35  C   UNL     1      -6.773   8.077  74.113  1.00  0.00     0.028 C 
ATOM     36  C   UNL     1      -5.664   8.915  73.469  1.00  0.00     0.031 C 
ATOM     37  C   UNL     1      -7.151   8.674  75.472  1.00  0.00     0.031 C 
ATOM     38  C   UNL     1      -6.287   6.634  74.296  1.00  0.00     0.031 C 
ENDBRANCH  33  35
ENDBRANCH  28  29
BRANCH  28  39
ATOM     39  C   UNL     1     -10.664   6.700  69.665  1.00  0.00    -0.011 C 
ATOM     40  C   UNL     1     -11.095   6.848  68.192  1.00  0.00     0.013 C 
ATOM     41  C   UNL     1     -10.377   5.208  69.928  1.00  0.00     0.013 C 
ATOM     42  C   UNL     1     -11.835   7.137  70.567  1.00  0.00     0.013 C 
ENDBRANCH  28  39
ENDBRANCH  10  28
TORSDOF 10

ENDMDL
MODEL 10
REMARK VINA RESULT:    -4.889      3.708      8.963
REMARK INTER + INTRA:          -9.946
REMARK INTER:                  -7.748
REMARK INTRA:                  -2.199
REMARK UNBOUND:                -2.199
REMARK SMILES CC(C)(C)NC(=O)N[C@H](C(=O)N1C[C@H]2[C@@H]([C@H]1C(=O)N[C@@H](CC1CCC1)C(=O)C(N)=O)C2(C)C)C(C)(C)C
REMARK SMILES IDX 11 1 12 2 15 3 31 4 14 5 16 6 13 7 32 8 33 9 10 10 17 11
REMARK SMILES IDX 18 12 19 13 20 15 21 16 22 17 23 18 25 19 24 20 26 21 27 22
REMARK SMILES IDX 28 23 30 24 29 25 9 28 8 29 6 30 7 32 5 33 2 35 1 36 3 37
REMARK SMILES IDX 4 38 34 39 35 40 36 41 37 42
REMARK H PARENT 19 14 29 26 29 27 8 31 5 34
REMARK INDEX MAP 2 1 6 2 11 3 12 4 13 5 14 6 15 7 16 8 17 9 19 10 18 11 1 12
REMARK INDEX MAP 7 13 38 14 22 15 23 16 24 17 29 18 30 19 31 20 28 21 3 22
REMARK INDEX MAP 33 23 5 24 10 25 41 26 42 27 20 28 8 29 32 30 39 31 4 32 9 33
REMARK INDEX MAP 40 34 34 35 35 36 36 37 37 38 21 39 25 40 26 41 27 42
REMARK Flexibility Score: inf
ROOT
ATOM      1  O   UNL     1      -6.005  18.040  66.411  1.00  0.00    -0.274 OA
ATOM      2  N   UNL     1      -5.484  16.715  68.237  1.00  0.00    -0.288 N 
ATOM      3  C   UNL     1      -5.603  14.399  68.612  1.00  0.00     0.030 C 
ATOM      4  C   UNL     1      -4.130  14.117  68.748  1.00  0.00    -0.025 C 
ATOM      5  C   UNL     1      -4.833  15.020  69.725  1.00  0.00     0.018 C 
ATOM      6  C   UNL     1      -6.108  15.492  67.720  1.00  0.00     0.166 C 
ATOM      7  C   UNL     1      -4.833  16.503  69.536  1.00  0.00     0.113 C 
ATOM      8  C   UNL     1      -3.676  12.764  69.180  1.00  0.00     0.011 C 
ATOM      9  C   UNL     1      -3.219  14.762  67.761  1.00  0.00     0.011 C 
ATOM     10  C   UNL     1      -5.448  17.891  67.500  1.00  0.00     0.237 C 
ENDROOT
BRANCH   6  11
ATOM     11  C   UNL     1      -7.584  15.692  67.860  1.00  0.00     0.234 C 
ATOM     12  O   UNL     1      -8.146  15.622  68.950  1.00  0.00    -0.274 OA
ATOM     13  N   UNL     1      -8.199  15.930  66.643  1.00  0.00    -0.304 N 
ATOM     14  H   UNL     1      -7.639  15.964  65.834  1.00  0.00     0.149 HD
BRANCH  13  15
ATOM     15  C   UNL     1      -9.622  16.134  66.503  1.00  0.00     0.149 C 
BRANCH  15  16
ATOM     16  C   UNL     1      -9.943  17.552  66.024  1.00  0.00     0.034 C 
BRANCH  16  17
ATOM     17  C   UNL     1      -9.455  18.595  67.026  1.00  0.00    -0.009 C 
ATOM     18  C   UNL     1     -10.093  19.991  66.869  1.00  0.00     0.003 C 
ATOM     19  C   UNL     1     -10.132  18.525  68.410  1.00  0.00     0.003 C 
ATOM     20  C   UNL     1     -10.117  20.068  68.410  1.00  0.00     0.001 C 
ENDBRANCH  16  17
ENDBRANCH  15  16
BRANCH  15  21
ATOM     21  C   UNL     1     -10.212  15.103  65.553  1.00  0.00     0.237 C 
ATOM     22  O   UNL     1     -10.946  15.368  64.609  1.00  0.00    -0.285 OA
BRANCH  21  23
ATOM     23  C   UNL     1      -9.974  13.644  65.818  1.00  0.00     0.279 C 
ATOM     24  O   UNL     1      -9.874  13.268  66.973  1.00  0.00    -0.267 OA
ATOM     25  N   UNL     1      -9.859  12.900  64.674  1.00  0.00    -0.323 N 
ATOM     26  H   UNL     1      -9.701  11.930  64.731  1.00  0.00     0.145 HD
ATOM     27  H   UNL     1      -9.934  13.335  63.793  1.00  0.00     0.145 HD
ENDBRANCH  21  23
ENDBRANCH  15  21
ENDBRANCH  13  15
ENDBRANCH   6  11
BRANCH  10  28
ATOM     28  C   UNL     1      -4.666  19.023  68.115  1.00  0.00     0.166 C 
BRANCH  28  29
ATOM     29  N   UNL     1      -3.821  19.487  67.048  1.00  0.00    -0.288 N 
ATOM     30  C   UNL     1      -2.429  19.549  67.141  1.00  0.00     0.301 C 
ATOM     31  H   UNL     1      -4.246  19.776  66.209  1.00  0.00     0.151 HD
ATOM     32  O   UNL     1      -1.786  19.216  68.136  1.00  0.00    -0.253 OA
ATOM     33  N   UNL     1      -1.861  20.035  65.967  1.00  0.00    -0.295 N 
ATOM     34  H   UNL     1      -2.455  20.276  65.220  1.00  0.00     0.151 HD
BRANCH  33  35
ATOM     35  C   UNL     1      -0.436  20.199  65.796  1.00  0.00     0.028 C 
ATOM     36  C   UNL     1      -0.154  20.754  64.397  1.00  0.00     0.031 C 
ATOM     37  C   UNL     1       0.085  21.175  66.856  1.00  0.00     0.031 C 
ATOM     38  C   UNL     1       0.254  18.839  65.958  1.00  0.00     0.031 C 
ENDBRANCH  33  35
ENDBRANCH  28  29
BRANCH  28  39
ATOM     39  C   UNL     1      -5.561  20.121  68.739  1.00  0.00    -0.011 C 
ATOM     40  C   UNL     1      -4.745  20.952  69.749  1.00  0.00     0.013 C 
ATOM     41  C   UNL     1      -6.048  21.071  67.625  1.00  0.00     0.013 C 
ATOM     42  C   UNL     1      -6.794  19.541  69.458  1.00  0.00     0.013 C 
ENDBRANCH  28  39
ENDBRANCH  10  28
TORSDOF 10

ENDMDL
