10324367
  PyMOL2.4          3D                             0

 37 39  0  0  1  0  0  0  0  0999 V2000
   -2.0475    0.1303    1.5340 O   0  0  0  0  0  0  0  0  0  0  0  0
    0.4018    1.4190   -0.6700 O   0  0  0  0  0  0  0  0  0  0  0  0
   -6.5786   -0.4504   -0.5508 O   0  0  0  0  0  0  0  0  0  0  0  0
    4.3926   -0.6647    0.8002 O   0  0  0  0  0  0  0  0  0  0  0  0
   -5.3735   -3.0111   -0.8151 O   0  0  0  0  0  0  0  0  0  0  0  0
    0.3559   -0.5091    0.6123 N   0  0  0  0  0  0  0  0  0  0  0  0
   -3.0048   -0.3318   -0.5370 N   0  0  0  0  0  0  0  0  0  0  0  0
    3.1619    1.0941   -0.0867 N   0  0  0  0  0  0  0  0  0  0  0  0
    5.0592    0.3608   -1.1714 N   0  0  0  0  0  0  0  0  0  0  0  0
   -4.5450   -2.2989    1.2422 N   0  0  0  0  0  0  0  0  0  0  0  0
   -0.8023   -2.5407    0.3936 C   0  0  1  0  0  0  0  0  0  0  0  0
    0.3759   -3.4479    0.1572 C   0  0  0  0  0  0  0  0  0  0  0  0
    0.2333   -2.6966    1.4534 C   0  0  1  0  0  0  0  0  0  0  0  0
   -0.7938   -1.1154   -0.0668 C   0  0  1  0  0  0  0  0  0  0  0  0
    0.9112   -1.3798    1.6555 C   0  0  0  0  0  0  0  0  0  0  0  0
    0.1749   -4.9248    0.1267 C   0  0  0  0  0  0  0  0  0  0  0  0
    1.4217   -2.9718   -0.7923 C   0  0  0  0  0  0  0  0  0  0  0  0
   -1.9969   -0.3654    0.4114 C   0  0  0  0  0  0  0  0  0  0  0  0
    0.8898    0.7076    0.2100 C   0  0  0  0  0  0  0  0  0  0  0  0
    2.1441    1.1392    0.9273 C   0  0  2  0  0  0  0  0  0  0  0  0
    2.0088    2.5109    1.6301 C   0  0  0  0  0  0  0  0  0  0  0  0
   -4.2794    0.3114   -0.3137 C   0  0  1  0  0  0  0  0  0  0  0  0
   -4.5366    1.4189   -1.3381 C   0  0  0  0  0  0  0  0  0  0  0  0
   -3.4119    2.4501   -1.3289 C   0  0  0  0  0  0  0  0  0  0  0  0
    3.3321    2.8718    2.3350 C   0  0  0  0  0  0  0  0  0  0  0  0
    1.7226    3.5970    0.5721 C   0  0  0  0  0  0  0  0  0  0  0  0
    0.8732    2.5342    2.6710 C   0  0  0  0  0  0  0  0  0  0  0  0
   -5.4011   -0.7146   -0.3415 C   0  0  0  0  0  0  0  0  0  0  0  0
   -3.7722    3.8061   -1.9707 C   0  0  0  0  0  0  0  0  0  0  0  0
   -3.2458    3.2113    0.0028 C   0  0  0  0  0  0  0  0  0  0  0  0
   -2.9573    4.4702   -0.8412 C   0  0  0  0  0  0  0  0  0  0  0  0
    4.2216    0.1851   -0.0728 C   0  0  0  0  0  0  0  0  0  0  0  0
   -5.0926   -2.1446   -0.0039 C   0  0  0  0  0  0  0  0  0  0  0  0
    6.2322   -0.4500   -1.3987 C   0  0  0  0  0  0  0  0  0  0  0  0
    6.8795   -0.0433   -2.7275 C   0  0  0  0  0  0  0  0  0  0  0  0
    7.2229   -0.2305   -0.2506 C   0  0  0  0  0  0  0  0  0  0  0  0
    5.8242   -1.9266   -1.4570 C   0  0  0  0  0  0  0  0  0  0  0  0
  1 18  2  0  0  0  0
  2 19  2  0  0  0  0
  3 28  2  0  0  0  0
  4 32  2  0  0  0  0
  5 33  2  0  0  0  0
  6 14  1  0  0  0  0
  6 15  1  0  0  0  0
  6 19  1  0  0  0  0
  7 18  1  0  0  0  0
  7 22  1  0  0  0  0
  8 20  1  0  0  0  0
  8 32  1  0  0  0  0
  9 32  1  0  0  0  0
  9 34  1  0  0  0  0
 10 33  1  0  0  0  0
 11 12  1  0  0  0  0
 11 13  1  0  0  0  0
 11 14  1  0  0  0  0
 12 13  1  0  0  0  0
 12 16  1  0  0  0  0
 12 17  1  0  0  0  0
 13 15  1  0  0  0  0
 14 18  1  0  0  0  0
 19 20  1  0  0  0  0
 20 21  1  0  0  0  0
 21 25  1  0  0  0  0
 21 26  1  0  0  0  0
 21 27  1  0  0  0  0
 22 23  1  0  0  0  0
 22 28  1  0  0  0  0
 23 24  1  0  0  0  0
 24 29  1  0  0  0  0
 24 30  1  0  0  0  0
 28 33  1  0  0  0  0
 29 31  1  0  0  0  0
 30 31  1  0  0  0  0
 34 35  1  0  0  0  0
 34 36  1  0  0  0  0
 34 37  1  0  0  0  0
M  END
$$$$
