REMARK SMILES CC(C)(C)NC(=O)N[C@H](C(=O)N1C[C@H]2[C@@H]([C@H]1C(=O)N[C@@H](CC1CCC1)C(=O)C(N)=O)C2(C)C)C(C)(C)C
REMARK SMILES IDX 11 1 12 2 15 3 31 4 14 5 16 6 13 7 32 8 33 9 10 10 17 11
REMARK SMILES IDX 18 12 19 13 20 15 21 16 22 17 23 18 25 19 24 20 26 21 27 22
REMARK SMILES IDX 28 23 30 24 29 25 9 28 8 29 6 30 7 32 5 33 2 35 1 36 3 37
REMARK SMILES IDX 4 38 34 39 35 40 36 41 37 42
REMARK H PARENT 19 14 29 26 29 27 8 31 5 34
REMARK INDEX MAP 2 1 6 2 11 3 12 4 13 5 14 6 15 7 16 8 17 9 19 10 18 11 1 12
REMARK INDEX MAP 7 13 38 14 22 15 23 16 24 17 29 18 30 19 31 20 28 21 3 22
REMARK INDEX MAP 33 23 5 24 10 25 41 26 42 27 20 28 8 29 32 30 39 31 4 32 9 33
REMARK INDEX MAP 40 34 34 35 35 36 36 37 37 38 21 39 25 40 26 41 27 42
REMARK Flexibility Score: inf
ROOT
ATOM      1  O   UNL     1       0.402   1.419  -0.670  1.00  0.00    -0.274 OA
ATOM      2  N   UNL     1       0.356  -0.509   0.612  1.00  0.00    -0.288 N 
ATOM      3  C   UNL     1      -0.802  -2.541   0.394  1.00  0.00     0.030 C 
ATOM      4  C   UNL     1       0.376  -3.448   0.157  1.00  0.00    -0.025 C 
ATOM      5  C   UNL     1       0.233  -2.697   1.453  1.00  0.00     0.018 C 
ATOM      6  C   UNL     1      -0.794  -1.115  -0.067  1.00  0.00     0.166 C 
ATOM      7  C   UNL     1       0.911  -1.380   1.656  1.00  0.00     0.113 C 
ATOM      8  C   UNL     1       0.175  -4.925   0.127  1.00  0.00     0.011 C 
ATOM      9  C   UNL     1       1.422  -2.972  -0.792  1.00  0.00     0.011 C 
ATOM     10  C   UNL     1       0.890   0.708   0.210  1.00  0.00     0.237 C 
ENDROOT
BRANCH   6  11
ATOM     11  C   UNL     1      -1.997  -0.365   0.411  1.00  0.00     0.234 C 
ATOM     12  O   UNL     1      -2.047   0.130   1.534  1.00  0.00    -0.274 OA
ATOM     13  N   UNL     1      -3.005  -0.332  -0.537  1.00  0.00    -0.304 N 
ATOM     14  H   UNL     1      -2.846  -0.767  -1.406  1.00  0.00     0.149 HD
BRANCH  13  15
ATOM     15  C   UNL     1      -4.279   0.311  -0.314  1.00  0.00     0.149 C 
BRANCH  15  16
ATOM     16  C   UNL     1      -4.537   1.419  -1.338  1.00  0.00     0.034 C 
BRANCH  16  17
ATOM     17  C   UNL     1      -3.412   2.450  -1.329  1.00  0.00    -0.009 C 
ATOM     18  C   UNL     1      -3.772   3.806  -1.971  1.00  0.00     0.003 C 
ATOM     19  C   UNL     1      -3.246   3.211   0.003  1.00  0.00     0.003 C 
ATOM     20  C   UNL     1      -2.957   4.470  -0.841  1.00  0.00     0.001 C 
ENDBRANCH  16  17
ENDBRANCH  15  16
BRANCH  15  21
ATOM     21  C   UNL     1      -5.401  -0.715  -0.342  1.00  0.00     0.237 C 
ATOM     22  O   UNL     1      -6.579  -0.450  -0.551  1.00  0.00    -0.285 OA
BRANCH  21  23
ATOM     23  C   UNL     1      -5.093  -2.145  -0.004  1.00  0.00     0.279 C 
ATOM     24  O   UNL     1      -5.373  -3.011  -0.815  1.00  0.00    -0.267 OA
ATOM     25  N   UNL     1      -4.545  -2.299   1.242  1.00  0.00    -0.323 N 
ATOM     26  H   UNL     1      -4.304  -3.197   1.566  1.00  0.00     0.145 HD
ATOM     27  H   UNL     1      -4.393  -1.512   1.814  1.00  0.00     0.145 HD
ENDBRANCH  21  23
ENDBRANCH  15  21
ENDBRANCH  13  15
ENDBRANCH   6  11
BRANCH  10  28
ATOM     28  C   UNL     1       2.144   1.139   0.927  1.00  0.00     0.166 C 
BRANCH  28  29
ATOM     29  N   UNL     1       3.162   1.094  -0.087  1.00  0.00    -0.288 N 
ATOM     30  C   UNL     1       4.222   0.185  -0.073  1.00  0.00     0.301 C 
ATOM     31  H   UNL     1       3.109   1.738  -0.830  1.00  0.00     0.151 HD
ATOM     32  O   UNL     1       4.393  -0.665   0.800  1.00  0.00    -0.253 OA
ATOM     33  N   UNL     1       5.059   0.361  -1.171  1.00  0.00    -0.295 N 
ATOM     34  H   UNL     1       4.842   1.068  -1.821  1.00  0.00     0.151 HD
BRANCH  33  35
ATOM     35  C   UNL     1       6.232  -0.450  -1.399  1.00  0.00     0.028 C 
ATOM     36  C   UNL     1       6.879  -0.043  -2.727  1.00  0.00     0.031 C 
ATOM     37  C   UNL     1       7.223  -0.230  -0.251  1.00  0.00     0.031 C 
ATOM     38  C   UNL     1       5.824  -1.927  -1.457  1.00  0.00     0.031 C 
ENDBRANCH  33  35
ENDBRANCH  28  29
BRANCH  28  39
ATOM     39  C   UNL     1       2.009   2.511   1.630  1.00  0.00    -0.011 C 
ATOM     40  C   UNL     1       3.332   2.872   2.335  1.00  0.00     0.013 C 
ATOM     41  C   UNL     1       1.723   3.597   0.572  1.00  0.00     0.013 C 
ATOM     42  C   UNL     1       0.873   2.534   2.671  1.00  0.00     0.013 C 
ENDBRANCH  28  39
ENDBRANCH  10  28
TORSDOF 10

