REMARK SMILES COc1c2c(cc3oc(=O)c(-c4ccc(O)cc4O)cc13)O[C@H](C(C)(C)O)C2
REMARK SMILES IDX 23 1 28 2 4 3 5 4 3 5 21 6 6 7 7 8 20 9 11 10 9 11 22 12
REMARK SMILES IDX 8 13 10 14 24 15 25 16 26 17 27 18 2 20 1 21 12 22 13 23
REMARK SMILES IDX 18 24 14 25 17 26 15 27 19 28 16 30
REMARK H PARENT 27 19 19 29 16 31
REMARK INDEX MAP 1 1 3 2 4 3 5 4 8 5 9 6 10 7 11 8 12 9 13 10 14 11 22 12
REMARK INDEX MAP 25 13 26 14 2 15 6 16 7 17 23 18 46 19 24 20 16 21 15 22
REMARK INDEX MAP 18 23 17 24 20 25 19 26 21 27 27 28 47 29 28 30 48 31
REMARK Flexibility Score: inf
ROOT
ATOM      1  C   UNL     1      -4.118   0.307  -0.545  1.00  0.00     0.209 C 
ATOM      2  C   UNL     1      -3.136  -0.893  -0.358  1.00  0.00     0.090 C 
ATOM      3  C   UNL     1      -1.827  -0.138  -0.278  1.00  0.00     0.040 A 
ATOM      4  C   UNL     1      -2.112   1.181  -0.105  1.00  0.00     0.131 A 
ATOM      5  C   UNL     1      -0.437  -0.632  -0.352  1.00  0.00     0.137 A 
ATOM      6  C   UNL     1       0.601   0.305  -0.225  1.00  0.00     0.060 A 
ATOM      7  C   UNL     1      -1.031   2.185   0.021  1.00  0.00     0.093 A 
ATOM      8  C   UNL     1       0.303   1.748  -0.034  1.00  0.00     0.146 A 
ATOM      9  C   UNL     1       2.050  -0.109  -0.274  1.00  0.00     0.031 A 
ATOM     10  C   UNL     1       2.977   0.840  -0.130  1.00  0.00     0.071 A 
ATOM     11  C   UNL     1       2.619   2.262   0.058  1.00  0.00     0.345 A 
ATOM     12  O   UNL     1      -3.460   1.502  -0.044  1.00  0.00    -0.485 OA
ATOM     13  O   UNL     1       1.341   2.674   0.094  1.00  0.00    -0.421 OA
ATOM     14  O   UNL     1       3.505   3.091   0.181  1.00  0.00    -0.245 OA
ENDROOT
BRANCH   1  15
ATOM     15  C   UNL     1      -5.488   0.098   0.167  1.00  0.00     0.097 C 
ATOM     16  C   UNL     1      -6.204  -1.176  -0.356  1.00  0.00     0.045 C 
ATOM     17  C   UNL     1      -6.404   1.336  -0.049  1.00  0.00     0.045 C 
BRANCH  15  18
ATOM     18  O   UNL     1      -5.270  -0.085   1.577  1.00  0.00    -0.385 OA
ATOM     19  H   UNL     1      -4.699  -0.856   1.718  1.00  0.00     0.210 HD
ENDBRANCH  15  18
ENDBRANCH   1  15
BRANCH   5  20
ATOM     20  O   UNL     1      -0.168  -1.987  -0.535  1.00  0.00    -0.494 OA
ATOM     21  C   UNL     1      -0.123  -2.735   0.690  1.00  0.00     0.277 C 
ENDBRANCH   5  20
BRANCH  10  22
ATOM     22  C   UNL     1       4.431   0.432  -0.162  1.00  0.00     0.031 A 
ATOM     23  C   UNL     1       5.166   0.400  -1.447  1.00  0.00     0.016 A 
ATOM     24  C   UNL     1       5.071   0.074   1.029  1.00  0.00     0.128 A 
ATOM     25  C   UNL     1       6.503  -0.012  -1.478  1.00  0.00     0.046 A 
ATOM     26  C   UNL     1       6.493  -0.356   0.993  1.00  0.00     0.091 A 
ATOM     27  C   UNL     1       7.188  -0.407  -0.220  1.00  0.00     0.120 A 
BRANCH  24  28
ATOM     28  O   UNL     1       4.359   0.119   2.230  1.00  0.00    -0.506 OA
ATOM     29  H   UNL     1       3.463   0.392   2.233  1.00  0.00     0.292 HD
ENDBRANCH  24  28
BRANCH  27  30
ATOM     30  O   UNL     1       8.518  -0.831  -0.225  1.00  0.00    -0.507 OA
ATOM     31  H   UNL     1       8.935  -1.077   0.577  1.00  0.00     0.292 HD
ENDBRANCH  27  30
ENDBRANCH  10  22
TORSDOF 6

