MOL004824
  PyMOL2.4          3D                             0

 28 31  0  0  0  0  0  0  0  0999 V2000
   -4.1180    0.3071   -0.5453 C   0  0  0  0  0  0  0  0  0  0  0  0
   -5.4882    0.0984    0.1667 C   0  0  0  0  0  0  0  0  0  0  0  0
   -3.1358   -0.8926   -0.3578 C   0  0  0  0  0  0  0  0  0  0  0  0
   -1.8269   -0.1380   -0.2784 C   0  0  0  0  0  0  0  0  0  0  0  0
   -2.1119    1.1813   -0.1051 C   0  0  0  0  0  0  0  0  0  0  0  0
   -6.2044   -1.1765   -0.3555 C   0  0  0  0  0  0  0  0  0  0  0  0
   -6.4037    1.3357   -0.0488 C   0  0  0  0  0  0  0  0  0  0  0  0
   -0.4370   -0.6322   -0.3515 C   0  0  0  0  0  0  0  0  0  0  0  0
    0.6015    0.3054   -0.2254 C   0  0  0  0  0  0  0  0  0  0  0  0
   -1.0306    2.1855    0.0208 C   0  0  0  0  0  0  0  0  0  0  0  0
    0.3025    1.7478   -0.0339 C   0  0  0  0  0  0  0  0  0  0  0  0
    2.0503   -0.1093   -0.2739 C   0  0  0  0  0  0  0  0  0  0  0  0
    2.9770    0.8403   -0.1302 C   0  0  0  0  0  0  0  0  0  0  0  0
    2.6186    2.2623    0.0583 C   0  0  0  0  0  0  0  0  0  0  0  0
    4.4311    0.4319   -0.1619 C   0  0  0  0  0  0  0  0  0  0  0  0
   -0.1226   -2.7350    0.6903 C   0  0  0  0  0  0  0  0  0  0  0  0
    5.0712    0.0739    1.0294 C   0  0  0  0  0  0  0  0  0  0  0  0
    5.1656    0.3996   -1.4474 C   0  0  0  0  0  0  0  0  0  0  0  0
    6.4928   -0.3560    0.9926 C   0  0  0  0  0  0  0  0  0  0  0  0
    6.5033   -0.0115   -1.4776 C   0  0  0  0  0  0  0  0  0  0  0  0
    7.1875   -0.4071   -0.2197 C   0  0  0  0  0  0  0  0  0  0  0  0
   -3.4600    1.5018   -0.0441 O   0  0  0  0  0  0  0  0  0  0  0  0
   -5.2696   -0.0848    1.5765 O   0  0  0  0  0  0  0  0  0  0  0  0
   -0.1683   -1.9871   -0.5352 O   0  0  0  0  0  0  0  0  0  0  0  0
    1.3414    2.6740    0.0941 O   0  0  0  0  0  0  0  0  0  0  0  0
    3.5048    3.0913    0.1810 O   0  0  0  0  0  0  0  0  0  0  0  0
    4.3593    0.1186    2.2295 O   0  0  0  0  0  0  0  0  0  0  0  0
    8.5179   -0.8308   -0.2254 O   0  0  0  0  0  0  0  0  0  0  0  0
  1  2  1  0  0  0  0
  2  6  1  0  0  0  0
  2  7  1  0  0  0  0
  2 23  1  0  0  0  0
  1  3  1  0  0  0  0
  3  4  1  0  0  0  0
  4  5  2  0  0  0  0
  5 22  1  0  0  0  0
  4  8  1  0  0  0  0
  8 24  1  0  0  0  0
  8  9  2  0  0  0  0
  9 11  1  0  0  0  0
  5 10  1  0  0  0  0
 10 11  2  0  0  0  0
  9 12  1  0  0  0  0
 12 13  2  0  0  0  0
 13 14  1  0  0  0  0
 14 25  1  0  0  0  0
 14 26  2  0  0  0  0
 13 15  1  0  0  0  0
 15 18  1  0  0  0  0
 15 17  2  0  0  0  0
 17 27  1  0  0  0  0
 18 20  2  0  0  0  0
 17 19  1  0  0  0  0
 19 21  2  0  0  0  0
 20 21  1  0  0  0  0
 21 28  1  0  0  0  0
  1 22  1  0  0  0  0
 16 24  1  0  0  0  0
 11 25  1  0  0  0  0
M  END
$$$$
